@<TRIPOS>MOLECULE
171352186
 35 37 0 0 0
SMALL
GASTEIGER

@<TRIPOS>ATOM
      1 C           6.9205    0.1986   -1.0266 C.3     1  UNL1       -0.0438
      2 C           6.4730   -0.8591   -0.0605 C.3     1  UNL1        0.0600
      3 N           5.2751   -0.4300    0.6704 N.ar    1  UNL1       -0.1631
      4 N           5.2317    0.2262    1.8112 N.ar    1  UNL1       -0.0458
      5 N           3.9518    0.3947    2.0876 N.ar    1  UNL1       -0.1071
      6 C           3.1724   -0.1550    1.1217 C.ar    1  UNL1        0.2163
      7 C           1.7202   -0.1851    1.0507 C.ar    1  UNL1        0.1230
      8 S           0.7183    0.4822   -0.3479 S.2     1  UNL1       -0.0601
      9 C          -0.8823   -0.0037    0.4619 C.ar    1  UNL1        0.1129
     10 C          -2.1260    0.3266   -0.2974 C.ar    1  UNL1        0.0090
     11 C          -2.1251    0.9483   -1.5168 C.ar    1  UNL1       -0.0519
     12 C          -3.3339    1.2255   -2.1687 C.ar    1  UNL1       -0.0594
     13 C          -4.5212    0.8559   -1.5501 C.ar    1  UNL1       -0.0408
     14 C          -4.5217    0.2295   -0.3215 C.ar    1  UNL1        0.0275
     15 N          -5.7488   -0.1432    0.2999 N.pl3   1  UNL1       -0.3469
     16 C          -7.0145    0.1278   -0.3444 C.3     1  UNL1       -0.0024
     17 C          -3.2965   -0.0251    0.2875 C.ar    1  UNL1       -0.0312
     18 N          -0.4975   -0.4865    1.4431 N.ar    1  UNL1       -0.2047
     19 C           0.7232   -0.6515    1.8763 C.ar    1  UNL1        0.2313
     20 O           1.0854   -1.2652    3.1122 O.3     1  UNL1       -0.4915
     21 N           4.0611   -0.6721    0.2338 N.ar    1  UNL1       -0.1297
     22 H           6.2374    1.0714   -1.0702 H       1  UNL1        0.0248
     23 H           7.9317    0.5783   -0.7236 H       1  UNL1        0.0248
     24 H           7.0731   -0.2466   -2.0395 H       1  UNL1        0.0248
     25 H           6.2634   -1.8200   -0.5286 H       1  UNL1        0.0524
     26 H           7.2507   -1.0192    0.7151 H       1  UNL1        0.0524
     27 H          -1.1854    1.2193   -1.9642 H       1  UNL1        0.0624
     28 H          -3.3261    1.7138   -3.1259 H       1  UNL1        0.0618
     29 H          -5.4650    1.0708   -2.0563 H       1  UNL1        0.0636
     30 H          -5.7557   -0.6115    1.2175 H       1  UNL1        0.1457
     31 H          -7.8617    0.0430    0.3376 H       1  UNL1        0.0425
     32 H          -7.1965   -0.5202   -1.2186 H       1  UNL1        0.0425
     33 H          -7.0149    1.1757   -0.7348 H       1  UNL1        0.0425
     34 H          -3.3293   -0.5223    1.2599 H       1  UNL1        0.0643
     35 H           1.1129   -2.2715    3.1106 H       1  UNL1        0.2938
@<TRIPOS>BOND
     1     1     2    1
     2     2     3    1
     3     3     4   ar
     4     4     5   ar
     5     5     6   ar
     6     6     7    1
     7     7     8   ar
     8     8     9   ar
     9     9    10    1
    10    10    11   ar
    11    11    12   ar
    12    12    13   ar
    13    13    14   ar
    14    14    15    1
    15    15    16    1
    16    14    17   ar
    17     9    18   ar
    18    18    19   ar
    19    19    20    1
    20     6    21   ar
    21    21     3   ar
    22    19     7   ar
    23    17    10   ar
    24     1    22    1
    25     1    23    1
    26     1    24    1
    27     2    25    1
    28     2    26    1
    29    11    27    1
    30    12    28    1
    31    13    29    1
    32    15    30    1
    33    16    31    1
    34    16    32    1
    35    16    33    1
    36    17    34    1
    37    20    35    1
@<TRIPOS>MOLECULE
50333241
 39 41 0 0 0
SMALL
GASTEIGER

@<TRIPOS>ATOM
      1 C          -6.8229    0.3268    0.1323 C.3     1  UNL1       -0.0396
      2 C          -5.3332    0.2429    0.1438 C.ar    1  UNL1       -0.0469
      3 C          -4.5725    1.1229    0.8854 C.ar    1  UNL1       -0.0569
      4 C          -3.1937    1.0554    0.9041 C.ar    1  UNL1       -0.0364
      5 C          -2.5139    0.1007    0.1786 C.ar    1  UNL1        0.0795
      6 N          -1.0684    0.0193    0.1898 N.am    1  UNL1       -0.2480
      7 C          -0.3271    0.7585   -0.7807 C.3     1  UNL1        0.0415
      8 C           1.1336    0.5878   -0.6588 C.2     1  UNL1       -0.0445
      9 C           1.7868   -0.1408    0.2111 C.2     1  UNL1        0.0397
     10 C           3.2581   -0.2114    0.2071 C.ar    1  UNL1        0.0024
     11 C           3.9337   -0.9955    1.1449 C.ar    1  UNL1       -0.0524
     12 C           5.3096   -1.1002    1.1896 C.ar    1  UNL1       -0.0547
     13 C           6.0696   -0.4077    0.2763 C.ar    1  UNL1        0.0156
     14 C           5.4518    0.3894   -0.6812 C.ar    1  UNL1        0.2738
     15 N           6.1969    1.1169   -1.6372 N.pl3   1  UNL1        0.0796
     16 O           7.4278    1.0593   -1.6423 O.2     1  UNL1        0.0414
     17 O           5.5479    1.8823   -2.5531 O.co2   1  UNL1       -0.5760
     18 C           4.0620    0.4551   -0.6762 C.ar    1  UNL1        0.0245
     19 N           1.0207   -0.8663    1.1660 N.am    1  UNL1       -0.2687
     20 C          -0.4024   -0.7766    1.1430 C.2     1  UNL1        0.3111
     21 O          -1.1134   -1.4190    1.9907 O.2     1  UNL1       -0.2519
     22 C          -3.2783   -0.7762   -0.5607 C.ar    1  UNL1        0.1385
     23 O          -2.6126   -1.7450   -1.2983 O.3     1  UNL1       -0.5049
     24 C          -4.6580   -0.7147   -0.5843 C.ar    1  UNL1       -0.0154
     25 H          -7.2319   -0.4865   -0.4706 H       1  UNL1        0.0278
     26 H          -7.0852    1.2975   -0.3805 H       1  UNL1        0.0278
     27 H          -7.1934    0.3495    1.1796 H       1  UNL1        0.0278
     28 H          -5.1141    1.8747    1.4564 H       1  UNL1        0.0621
     29 H          -2.6077    1.7594    1.4963 H       1  UNL1        0.0637
     30 H          -0.5325    1.8614   -0.7238 H       1  UNL1        0.0513
     31 H          -0.6103    0.4459   -1.8386 H       1  UNL1        0.0513
     32 H           1.7859    1.1325   -1.3806 H       1  UNL1        0.0606
     33 H           3.3676   -1.5449    1.8670 H       1  UNL1        0.0624
     34 H           5.8243   -1.7115    1.9214 H       1  UNL1        0.0620
     35 H           7.1533   -0.4540    0.2663 H       1  UNL1        0.0685
     36 H           3.6350    1.0788   -1.4291 H       1  UNL1        0.0692
     37 H           1.4592   -1.4575    1.8775 H       1  UNL1        0.1564
     38 H          -2.8867   -2.7042   -1.3628 H       1  UNL1        0.2922
     39 H          -5.2658   -1.4052   -1.1668 H       1  UNL1        0.0657
@<TRIPOS>UNITY_ATOM_ATTR
15 1
charge 1
17 1
charge -1
@<TRIPOS>BOND
     1     1     2    1
     2     2     3   ar
     3     3     4   ar
     4     4     5   ar
     5     5     6    1
     6     6     7    1
     7     7     8    1
     8     8     9    2
     9     9    10    1
    10    10    11   ar
    11    11    12   ar
    12    12    13   ar
    13    13    14   ar
    14    14    15    1
    15    15    16    2
    16    15    17    1
    17    14    18   ar
    18     9    19    1
    19    19    20   am
    20    20    21    2
    21     5    22   ar
    22    22    23    1
    23    22    24   ar
    24    24     2   ar
    25    20     6   am
    26    18    10   ar
    27     1    25    1
    28     1    26    1
    29     1    27    1
    30     3    28    1
    31     4    29    1
    32     7    30    1
    33     7    31    1
    34     8    32    1
    35    11    33    1
    36    12    34    1
    37    13    35    1
    38    18    36    1
    39    19    37    1
    40    23    38    1
    41    24    39    1
@<TRIPOS>MOLECULE
51028036
 42 43 0 0 0
SMALL
GASTEIGER

@<TRIPOS>ATOM
      1 C           7.0345    0.2058    0.9590 C.3     1  UNL1        0.0788
      2 O           6.2034    0.1253   -0.1652 O.3     1  UNL1       -0.4951
      3 C           4.8185    0.1965   -0.0975 C.ar    1  UNL1        0.1202
      4 C           4.2298    0.3540    1.1398 C.ar    1  UNL1       -0.0182
      5 C           2.8654    0.4256    1.2188 C.ar    1  UNL1       -0.0370
      6 C           2.0143    0.3487    0.1135 C.ar    1  UNL1        0.0339
      7 N           0.6269    0.4337    0.3101 N.am    1  UNL1       -0.2815
      8 C          -0.3517    0.3901   -0.7034 C.2     1  UNL1        0.2485
      9 O          -0.0432    0.2676   -1.8947 O.2     1  UNL1       -0.2698
     10 C          -1.7570    0.4965   -0.2945 C.ar    1  UNL1        0.0407
     11 C          -2.1356    1.6652    0.3717 C.ar    1  UNL1       -0.0464
     12 C          -3.4316    1.8514    0.7922 C.ar    1  UNL1       -0.0497
     13 C          -3.8196    3.1034    1.5025 C.3     1  UNL1       -0.0397
     14 C          -4.3376    0.8459    0.5321 C.ar    1  UNL1       -0.0585
     15 C          -3.9662   -0.3070   -0.1244 C.ar    1  UNL1       -0.0574
     16 C          -2.6539   -0.5077   -0.5560 C.ar    1  UNL1       -0.0327
     17 C          -2.2113   -1.7189   -1.2585 C.3     1  UNL1       -0.0208
     18 C          -1.7271   -2.7965   -0.3111 C.3     1  UNL1       -0.0586
     19 C          -3.4209   -2.3322   -1.9841 C.3     1  UNL1       -0.0586
     20 C           2.6170    0.1924   -1.1047 C.ar    1  UNL1       -0.0370
     21 C           4.0150    0.1165   -1.2103 C.ar    1  UNL1       -0.0182
     22 H           8.0574   -0.1212    0.6882 H       1  UNL1        0.0660
     23 H           7.1121    1.2635    1.3387 H       1  UNL1        0.0660
     24 H           6.6907   -0.4085    1.8106 H       1  UNL1        0.0660
     25 H           4.8264    0.4220    2.0388 H       1  UNL1        0.0655
     26 H           2.4223    0.5510    2.2233 H       1  UNL1        0.0637
     27 H           0.2884    0.5413    1.3328 H       1  UNL1        0.1551
     28 H          -1.4016    2.4533    0.5694 H       1  UNL1        0.0628
     29 H          -3.5591    4.0142    0.9308 H       1  UNL1        0.0278
     30 H          -4.8919    3.1325    1.7158 H       1  UNL1        0.0278
     31 H          -3.2495    3.1540    2.4438 H       1  UNL1        0.0278
     32 H          -5.3693    0.9379    0.8393 H       1  UNL1        0.0620
     33 H          -4.6622   -1.1089   -0.3381 H       1  UNL1        0.0621
     34 H          -1.4674   -1.5608   -2.0517 H       1  UNL1        0.0344
     35 H          -1.3250   -2.4205    0.6249 H       1  UNL1        0.0235
     36 H          -0.9349   -3.3938   -0.8468 H       1  UNL1        0.0235
     37 H          -2.5265   -3.5418   -0.0882 H       1  UNL1        0.0235
     38 H          -3.9929   -2.8611   -1.1760 H       1  UNL1        0.0235
     39 H          -3.1043   -3.0188   -2.7732 H       1  UNL1        0.0235
     40 H          -4.0588   -1.5019   -2.3060 H       1  UNL1        0.0235
     41 H           2.0978    0.1182   -2.0329 H       1  UNL1        0.0637
     42 H           4.4792   -0.0069   -2.1807 H       1  UNL1        0.0655
@<TRIPOS>BOND
     1     1     2    1
     2     2     3    1
     3     3     4   ar
     4     4     5   ar
     5     5     6   ar
     6     6     7    1
     7     7     8   am
     8     8     9    2
     9     8    10    1
    10    10    11   ar
    11    11    12   ar
    12    12    13    1
    13    12    14   ar
    14    14    15   ar
    15    15    16   ar
    16    16    17    1
    17    17    18    1
    18    17    19    1
    19     6    20   ar
    20    20    21   ar
    21    21     3   ar
    22    16    10   ar
    23     1    22    1
    24     1    23    1
    25     1    24    1
    26     4    25    1
    27     5    26    1
    28     7    27    1
    29    11    28    1
    30    13    29    1
    31    13    30    1
    32    13    31    1
    33    14    32    1
    34    15    33    1
    35    17    34    1
    36    18    35    1
    37    18    36    1
    38    18    37    1
    39    19    38    1
    40    19    39    1
    41    19    40    1
    42    20    41    1
    43    21    42    1
@<TRIPOS>MOLECULE
51324101
 85 89 0 0 0
SMALL
GASTEIGER

@<TRIPOS>ATOM
      1 C           6.2341    1.0664    3.1139 C.3     1  UNL1        0.0790
      2 O           6.7969    0.7478    1.8641 O.3     1  UNL1       -0.4914
      3 C           6.0115    0.8927    0.7347 C.ar    1  UNL1        0.1622
      4 C           4.7153    1.3280    0.7979 C.ar    1  UNL1       -0.0096
      5 C           3.9079    1.4793   -0.3362 C.ar    1  UNL1        0.0004
      6 C           2.5070    1.8610   -0.1022 C.3     1  UNL1        0.0029
      7 CA          1.6927    0.7193    0.3477 C.3     1  UNL1        0.1037
      8 N           1.5811   -0.4380   -0.4484 N.am    1  UNL1       -0.3021
      9 C           0.6942   -1.4745    0.0096 C.2     1  UNL1        0.2345
     10 O           0.5467   -2.5311   -0.6197 O.2     1  UNL1       -0.2737
     11 CA         -0.0531   -1.2217    1.2938 C.3     1  UNL1        0.1072
     12 C          -0.9443   -2.3146    1.6709 C.3     1  UNL1        0.0035
     13 C          -2.3717   -2.0131    1.6555 C.ar    1  UNL1        0.0057
     14 C          -3.2277   -3.0891    1.8168 C.ar    1  UNL1        0.1302
     15 O          -2.6920   -4.3573    1.9722 O.3     1  UNL1       -0.4944
     16 C          -2.4692   -5.1194    0.7944 C.3     1  UNL1        0.0788
     17 C          -4.5943   -2.9441    1.8287 C.ar    1  UNL1        0.0367
     18 C          -5.5155   -4.0919    2.0019 C.3     1  UNL1       -0.0326
     19 C          -5.1062   -1.6742    1.6722 C.ar    1  UNL1        0.1682
     20 O          -6.4775   -1.4416    1.6726 O.3     1  UNL1       -0.4911
     21 C          -7.2076   -1.1563    2.8529 C.3     1  UNL1        0.0790
     22 C          -4.2332   -0.5783    1.5071 C.ar    1  UNL1        0.1675
     23 O          -4.8382    0.6276    1.3630 O.3     1  UNL1       -0.4911
     24 C          -5.2873    1.0319    0.0577 C.3     1  UNL1        0.0790
     25 C          -2.8675   -0.7164    1.4958 C.ar    1  UNL1        0.0288
     26 C          -1.9741    0.4017    1.3833 C.3     1  UNL1        0.0747
     27 C          -2.3972    1.5154    0.4709 C.2     1  UNL1       -0.0587
     28 C          -2.0971    1.4870   -0.8135 C.2     1  UNL1       -0.0565
     29 C          -2.4701    2.5334   -1.7749 C.ar    1  UNL1       -0.0253
     30 C          -2.1052    2.3932   -3.1164 C.ar    1  UNL1       -0.0546
     31 C          -2.4345    3.3545   -4.0381 C.ar    1  UNL1       -0.0612
     32 C          -3.1371    4.4950   -3.6795 C.ar    1  UNL1       -0.0617
     33 C          -3.5027    4.6440   -2.3578 C.ar    1  UNL1       -0.0612
     34 C          -3.1618    3.6678   -1.4516 C.ar    1  UNL1       -0.0546
     35 N          -0.6007    0.0829    1.1568 N.am    1  UNL1       -0.2774
     36 C           0.3174    1.1224    0.7592 C.2     1  UNL1        0.2376
     37 O           0.0119    2.3247    0.7464 O.2     1  UNL1       -0.2735
     38 C           4.4606    1.1748   -1.5617 C.ar    1  UNL1        0.1299
     39 O           3.8323    1.2753   -2.7557 O.3     1  UNL1       -0.4945
     40 C           3.1126    0.4542   -3.5742 C.3     1  UNL1        0.0788
     41 C           5.7944    0.7271   -1.6160 C.ar    1  UNL1        0.0367
     42 C           6.3976    0.3969   -2.9214 C.3     1  UNL1       -0.0326
     43 C           6.5686    0.5842   -0.4903 C.ar    1  UNL1        0.1679
     44 O           7.8884    0.1414   -0.5421 O.3     1  UNL1       -0.4911
     45 C           8.2683   -1.2041   -0.4622 C.3     1  UNL1        0.0790
     46 H           6.9795    0.8575    3.9084 H       1  UNL1        0.0660
     47 H           6.0903    2.1780    3.1151 H       1  UNL1        0.0660
     48 H           5.2741    0.5646    3.2940 H       1  UNL1        0.0660
     49 H           4.2984    1.5657    1.7595 H       1  UNL1        0.0659
     50 H           2.0796    2.1917   -1.1008 H       1  UNL1        0.0337
     51 H           2.4158    2.7591    0.5525 H       1  UNL1        0.0337
     52 HA          2.1546    0.3606    1.3368 H       1  UNL1        0.0598
     53 H           2.1073   -0.5744   -1.3187 H       1  UNL1        0.1495
     54 HA          0.7845   -1.1861    2.0633 H       1  UNL1        0.0600
     55 H          -0.7896   -3.1615    0.9356 H       1  UNL1        0.0337
     56 H          -0.6646   -2.7968    2.6556 H       1  UNL1        0.0337
     57 H          -2.4950   -4.4881   -0.1237 H       1  UNL1        0.0660
     58 H          -1.4656   -5.5625    0.8645 H       1  UNL1        0.0660
     59 H          -3.2653   -5.8808    0.6575 H       1  UNL1        0.0660
     60 H          -6.1797   -3.9155    2.8558 H       1  UNL1        0.0280
     61 H          -4.9205   -5.0049    2.2149 H       1  UNL1        0.0280
     62 H          -6.0851   -4.2259    1.0672 H       1  UNL1        0.0280
     63 H          -6.5452   -0.9815    3.7227 H       1  UNL1        0.0660
     64 H          -7.8556   -0.2625    2.7332 H       1  UNL1        0.0660
     65 H          -7.8856   -2.0281    3.0080 H       1  UNL1        0.0660
     66 H          -4.7938    0.4579   -0.7451 H       1  UNL1        0.0660
     67 H          -5.1726    2.1195   -0.0921 H       1  UNL1        0.0660
     68 H          -6.3671    0.7597    0.0033 H       1  UNL1        0.0660
     69 H          -1.9759    0.9084    2.4131 H       1  UNL1        0.0597
     70 H          -2.9397    2.3738    0.8322 H       1  UNL1        0.0594
     71 H          -1.5362    0.6206   -1.1522 H       1  UNL1        0.0621
     72 H          -1.5644    1.5214   -3.4090 H       1  UNL1        0.0623
     73 H          -2.1701    3.2814   -5.0889 H       1  UNL1        0.0618
     74 H          -3.4047    5.2589   -4.3865 H       1  UNL1        0.0618
     75 H          -4.0617    5.5313   -2.0242 H       1  UNL1        0.0618
     76 H          -3.4643    3.8192   -0.4324 H       1  UNL1        0.0623
     77 H           3.3804   -0.6192   -3.3371 H       1  UNL1        0.0660
     78 H           2.0132    0.5585   -3.4232 H       1  UNL1        0.0660
     79 H           3.3640    0.5406   -4.6629 H       1  UNL1        0.0660
     80 H           7.4482    0.8086   -2.9443 H       1  UNL1        0.0280
     81 H           5.8694    0.9065   -3.7507 H       1  UNL1        0.0280
     82 H           6.5156   -0.6851   -3.0996 H       1  UNL1        0.0280
     83 H           9.2825   -1.3253   -0.9380 H       1  UNL1        0.0660
     84 H           7.5578   -1.8938   -0.9408 H       1  UNL1        0.0660
     85 H           8.4139   -1.5158    0.5984 H       1  UNL1        0.0660
@<TRIPOS>BOND
     1     1     2    1
     2     2     3    1
     3     3     4   ar
     4     4     5   ar
     5     5     6    1
     6     6     7    1
     7     7     8    1
     8     8     9   am
     9     9    10    2
    10     9    11    1
    11    11    12    1
    12    12    13    1
    13    13    14   ar
    14    14    15    1
    15    15    16    1
    16    14    17   ar
    17    17    18    1
    18    17    19   ar
    19    19    20    1
    20    20    21    1
    21    19    22   ar
    22    22    23    1
    23    23    24    1
    24    22    25   ar
    25    25    26    1
    26    26    27    1
    27    27    28    2
    28    28    29    1
    29    29    30   ar
    30    30    31   ar
    31    31    32   ar
    32    32    33   ar
    33    33    34   ar
    34    26    35    1
    35    35    36   am
    36    36    37    2
    37     5    38   ar
    38    38    39    1
    39    39    40    1
    40    38    41   ar
    41    41    42    1
    42    41    43   ar
    43    43    44    1
    44    44    45    1
    45    43     3   ar
    46    36     7    1
    47    35    11    1
    48    25    13   ar
    49    34    29   ar
    50     1    46    1
    51     1    47    1
    52     1    48    1
    53     4    49    1
    54     6    50    1
    55     6    51    1
    56     7    52    1
    57     8    53    1
    58    11    54    1
    59    12    55    1
    60    12    56    1
    61    16    57    1
    62    16    58    1
    63    16    59    1
    64    18    60    1
    65    18    61    1
    66    18    62    1
    67    21    63    1
    68    21    64    1
    69    21    65    1
    70    24    66    1
    71    24    67    1
    72    24    68    1
    73    26    69    1
    74    27    70    1
    75    28    71    1
    76    30    72    1
    77    31    73    1
    78    32    74    1
    79    33    75    1
    80    34    76    1
    81    40    77    1
    82    40    78    1
    83    40    79    1
    84    42    80    1
    85    42    81    1
    86    42    82    1
    87    45    83    1
    88    45    84    1
    89    45    85    1
@<TRIPOS>MOLECULE
50333250
 35 37 0 0 0
SMALL
GASTEIGER

@<TRIPOS>ATOM
      1 O           1.5191   -2.1461    0.8739 O.2     1  UNL1       -0.2519
      2 C           0.9609   -1.0785    0.4428 C.2     1  UNL1        0.3110
      3 N          -0.4555   -0.9619    0.4361 N.am    1  UNL1       -0.2687
      4 C          -1.0293    0.2476   -0.0541 C.2     1  UNL1        0.0397
      5 C          -2.4921    0.3911   -0.0706 C.ar    1  UNL1        0.0024
      6 C          -3.0876    1.5520   -0.5398 C.ar    1  UNL1       -0.0524
      7 C          -4.4821    1.6821   -0.5527 C.ar    1  UNL1       -0.0547
      8 C          -5.2865    0.6678   -0.1032 C.ar    1  UNL1        0.0156
      9 C          -4.7001   -0.4787    0.3602 C.ar    1  UNL1        0.2738
     10 N          -5.4762   -1.5634    0.8384 N.pl3   1  UNL1        0.0796
     11 O          -6.7143   -1.4587    0.8314 O.2     1  UNL1        0.0414
     12 O          -4.8880   -2.7011    1.2982 O.co2   1  UNL1       -0.5760
     13 C          -3.3194   -0.6150    0.3761 C.ar    1  UNL1        0.0245
     14 C          -0.2656    1.2380   -0.4923 C.2     1  UNL1       -0.0445
     15 C           1.2155    1.2142   -0.5265 C.3     1  UNL1        0.0414
     16 N           1.7631   -0.0152   -0.0272 N.am    1  UNL1       -0.2505
     17 C           3.2054   -0.1746   -0.0033 C.ar    1  UNL1        0.0512
     18 C           3.9120    0.2146    1.1134 C.ar    1  UNL1       -0.0392
     19 C           5.2999    0.0802    1.1810 C.ar    1  UNL1       -0.0599
     20 C           5.9226   -0.4603    0.0761 C.ar    1  UNL1       -0.0607
     21 C           5.2120   -0.8488   -1.0400 C.ar    1  UNL1       -0.0468
     22 C           3.8330   -0.7139   -1.1042 C.ar    1  UNL1        0.0348
     23 I           2.7534   -1.3116   -2.8174 I       1  UNL1       -0.0419
     24 H          -1.0205   -1.7759    0.7944 H       1  UNL1        0.1564
     25 H          -2.5568    2.4032   -0.9127 H       1  UNL1        0.0624
     26 H          -4.9390    2.5884   -0.9192 H       1  UNL1        0.0620
     27 H          -6.3752    0.7261   -0.0952 H       1  UNL1        0.0685
     28 H          -2.9055   -1.5338    0.7492 H       1  UNL1        0.0692
     29 H          -0.7130    2.1735   -0.8714 H       1  UNL1        0.0606
     30 H           1.5407    2.0858    0.1108 H       1  UNL1        0.0513
     31 H           1.5627    1.4091   -1.5631 H       1  UNL1        0.0513
     32 H           3.4435    0.6396    1.9881 H       1  UNL1        0.0636
     33 H           5.8573    0.3850    2.0567 H       1  UNL1        0.0618
     34 H           7.0106   -0.5849    0.0835 H       1  UNL1        0.0618
     35 H           5.6951   -1.2760   -1.9160 H       1  UNL1        0.0628
@<TRIPOS>UNITY_ATOM_ATTR
10 1
charge 1
12 1
charge -1
@<TRIPOS>BOND
     1     1     2    2
     2     2     3   am
     3     3     4    1
     4     4     5    1
     5     5     6   ar
     6     6     7   ar
     7     7     8   ar
     8     8     9   ar
     9     9    10    1
    10    10    11    2
    11    10    12    1
    12     9    13   ar
    13     4    14    2
    14    14    15    1
    15    15    16    1
    16    16    17    1
    17    17    18   ar
    18    18    19   ar
    19    19    20   ar
    20    20    21   ar
    21    21    22   ar
    22    22    23    1
    23    16     2   am
    24    22    17   ar
    25    13     5   ar
    26     3    24    1
    27     6    25    1
    28     7    26    1
    29     8    27    1
    30    13    28    1
    31    14    29    1
    32    15    30    1
    33    15    31    1
    34    18    32    1
    35    19    33    1
    36    20    34    1
    37    21    35    1
@<TRIPOS>MOLECULE
51027949
 41 42 0 0 0
SMALL
GASTEIGER

@<TRIPOS>ATOM
      1 C          -3.2183    4.3211    0.2795 C.3     1  UNL1       -0.0397
      2 C          -2.9262    2.8626    0.2298 C.ar    1  UNL1       -0.0497
      3 C          -3.9678    1.9620    0.2248 C.ar    1  UNL1       -0.0585
      4 C          -3.6779    0.6145    0.1873 C.ar    1  UNL1       -0.0574
      5 C          -2.3701    0.1189    0.1549 C.ar    1  UNL1       -0.0327
      6 C          -2.0934   -1.3182    0.1008 C.3     1  UNL1       -0.0208
      7 C          -1.3769   -1.8175    1.3423 C.3     1  UNL1       -0.0586
      8 C          -3.4489   -2.0542    0.1208 C.3     1  UNL1       -0.0586
      9 C          -1.3433    1.0160    0.1605 C.ar    1  UNL1        0.0407
     10 C           0.0298    0.5788    0.1581 C.2     1  UNL1        0.2485
     11 O           0.7823    0.8555    1.1654 O.2     1  UNL1       -0.2698
     12 N           0.6961   -0.1520   -0.8558 N.am    1  UNL1       -0.2815
     13 C           2.0723   -0.5260   -0.7361 C.ar    1  UNL1        0.0337
     14 C           3.0174    0.3222   -1.3230 C.ar    1  UNL1       -0.0399
     15 C           4.3623    0.0088   -1.1999 C.ar    1  UNL1       -0.0484
     16 C           4.8218   -1.1121   -0.5210 C.ar    1  UNL1        0.0549
     17 C           6.2799   -1.3923   -0.4151 C.3     1  UNL1        0.4174
     18 F           7.0367   -0.2425   -0.5812 F       1  UNL1       -0.1659
     19 F           6.5540   -1.8855    0.8680 F       1  UNL1       -0.1659
     20 F           6.6913   -2.3040   -1.3586 F       1  UNL1       -0.1659
     21 C           3.8759   -1.9389    0.0523 C.ar    1  UNL1       -0.0484
     22 C           2.5332   -1.6213   -0.0730 C.ar    1  UNL1       -0.0399
     23 C          -1.6163    2.3930    0.1972 C.ar    1  UNL1       -0.0464
     24 H          -2.3124    4.9128    0.5609 H       1  UNL1        0.0278
     25 H          -4.0182    4.5444    1.0095 H       1  UNL1        0.0278
     26 H          -3.5731    4.6317   -0.7064 H       1  UNL1        0.0278
     27 H          -5.0172    2.2810    0.2575 H       1  UNL1        0.0620
     28 H          -4.5503   -0.0567    0.1777 H       1  UNL1        0.0621
     29 H          -1.6129   -1.6718   -0.8265 H       1  UNL1        0.0344
     30 H          -1.9684   -2.5380    1.9320 H       1  UNL1        0.0235
     31 H          -1.0425   -1.0416    2.0197 H       1  UNL1        0.0235
     32 H          -0.4869   -2.4199    0.9873 H       1  UNL1        0.0235
     33 H          -4.0103   -1.7782    1.0324 H       1  UNL1        0.0235
     34 H          -3.2068   -3.1340    0.2493 H       1  UNL1        0.0235
     35 H          -4.0091   -1.8934   -0.8178 H       1  UNL1        0.0235
     36 H           0.1656   -0.4096   -1.7090 H       1  UNL1        0.1551
     37 H           2.6651    1.2086   -1.8609 H       1  UNL1        0.0636
     38 H           5.0781    0.6895   -1.6712 H       1  UNL1        0.0624
     39 H           4.1569   -2.8227    0.5989 H       1  UNL1        0.0624
     40 H           1.8272   -2.2869    0.3841 H       1  UNL1        0.0636
     41 H          -0.7988    3.0957    0.2036 H       1  UNL1        0.0628
@<TRIPOS>BOND
     1     1     2    1
     2     2     3   ar
     3     3     4   ar
     4     4     5   ar
     5     5     6    1
     6     6     7    1
     7     6     8    1
     8     5     9   ar
     9     9    10    1
    10    10    11    2
    11    10    12   am
    12    12    13    1
    13    13    14   ar
    14    14    15   ar
    15    15    16   ar
    16    16    17    1
    17    17    18    1
    18    17    19    1
    19    17    20    1
    20    16    21   ar
    21    21    22   ar
    22     9    23   ar
    23    23     2   ar
    24    22    13   ar
    25     1    24    1
    26     1    25    1
    27     1    26    1
    28     3    27    1
    29     4    28    1
    30     6    29    1
    31     7    30    1
    32     7    31    1
    33     7    32    1
    34     8    33    1
    35     8    34    1
    36     8    35    1
    37    12    36    1
    38    14    37    1
    39    15    38    1
    40    21    39    1
    41    22    40    1
    42    23    41    1
@<TRIPOS>MOLECULE
50333251
 35 37 0 0 0
SMALL
GASTEIGER

@<TRIPOS>ATOM
      1 O           1.2738   -2.3842   -0.1926 O.2     1  UNL1       -0.2519
      2 C           0.8848   -1.1906   -0.0994 C.2     1  UNL1        0.3110
      3 N          -0.5634   -1.0493   -0.0691 N.am    1  UNL1       -0.2687
      4 C          -1.1024    0.2548    0.0343 C.2     1  UNL1        0.0397
      5 C          -2.5553    0.4623    0.0694 C.ar    1  UNL1        0.0024
      6 C          -3.1108    1.6972    0.1679 C.ar    1  UNL1       -0.0524
      7 C          -4.5070    1.8360    0.1972 C.ar    1  UNL1       -0.0547
      8 C          -5.3246    0.7350    0.1274 C.ar    1  UNL1        0.0156
      9 C          -4.7863   -0.5217    0.0275 C.ar    1  UNL1        0.2738
     10 N          -5.5975   -1.6775   -0.0464 N.pl3   1  UNL1        0.0796
     11 O          -6.8351   -1.5927   -0.0232 O.2     1  UNL1        0.0414
     12 O          -5.0044   -2.9048   -0.1449 O.co2   1  UNL1       -0.5760
     13 C          -3.3946   -0.6280    0.0007 C.ar    1  UNL1        0.0245
     14 C          -0.2532    1.2571    0.0964 C.2     1  UNL1       -0.0445
     15 C           1.2113    1.2234    0.0739 C.3     1  UNL1        0.0414
     16 N           1.7680   -0.1055   -0.0316 N.am    1  UNL1       -0.2514
     17 C           3.1913   -0.2546   -0.0621 C.ar    1  UNL1        0.0395
     18 C           3.9944    0.8952    0.0117 C.ar    1  UNL1       -0.0401
     19 C           5.3658    0.8523   -0.0103 C.ar    1  UNL1       -0.0586
     20 C           6.0130   -0.3587   -0.1085 C.ar    1  UNL1       -0.0433
     21 C           5.2543   -1.4987   -0.1821 C.ar    1  UNL1        0.0427
     22 CL          6.0471   -3.0510   -0.3075 Cl      1  UNL1       -0.0835
     23 C           3.8505   -1.4325   -0.1580 C.ar    1  UNL1       -0.0219
     24 H          -1.1586   -1.8886   -0.1228 H       1  UNL1        0.1564
     25 H          -2.5682    2.6092    0.2276 H       1  UNL1        0.0624
     26 H          -4.9581    2.8075    0.2749 H       1  UNL1        0.0620
     27 H          -6.4024    0.8292    0.1491 H       1  UNL1        0.0685
     28 H          -3.0176   -1.6570   -0.0802 H       1  UNL1        0.0692
     29 H          -0.7556    2.2492    0.1763 H       1  UNL1        0.0606
     30 H           1.5333    1.8748   -0.7711 H       1  UNL1        0.0513
     31 H           1.6551    1.7349    0.9826 H       1  UNL1        0.0513
     32 H           3.4931    1.8478    0.0888 H       1  UNL1        0.0636
     33 H           5.9097    1.7915    0.0515 H       1  UNL1        0.0619
     34 H           7.1066   -0.3871   -0.1256 H       1  UNL1        0.0632
     35 H           3.3428   -2.3752   -0.2205 H       1  UNL1        0.0651
@<TRIPOS>UNITY_ATOM_ATTR
10 1
charge 1
12 1
charge -1
@<TRIPOS>BOND
     1     1     2    2
     2     2     3   am
     3     3     4    1
     4     4     5    1
     5     5     6   ar
     6     6     7   ar
     7     7     8   ar
     8     8     9   ar
     9     9    10    1
    10    10    11    2
    11    10    12    1
    12     9    13   ar
    13     4    14    2
    14    14    15    1
    15    15    16    1
    16    16    17    1
    17    17    18   ar
    18    18    19   ar
    19    19    20   ar
    20    20    21   ar
    21    21    22    1
    22    21    23   ar
    23    16     2   am
    24    23    17   ar
    25    13     5   ar
    26     3    24    1
    27     6    25    1
    28     7    26    1
    29     8    27    1
    30    13    28    1
    31    14    29    1
    32    15    30    1
    33    15    31    1
    34    18    32    1
    35    19    33    1
    36    20    34    1
    37    23    35    1
@<TRIPOS>MOLECULE
51078705
 31 33 0 0 0
SMALL
GASTEIGER

@<TRIPOS>ATOM
      1 C          -5.8467    0.0118    1.0987 C.3     1  UNL1        0.0788
      2 O          -5.1675    0.3409   -0.0946 O.3     1  UNL1       -0.4951
      3 C          -3.8018    0.3931   -0.1465 C.ar    1  UNL1        0.1201
      4 C          -3.2053    0.7253   -1.3607 C.ar    1  UNL1       -0.0194
      5 C          -1.8467    0.7963   -1.4855 C.ar    1  UNL1       -0.0510
      6 C          -1.0230    0.5388   -0.4039 C.ar    1  UNL1       -0.0213
      7 C           0.4145    0.6390   -0.6308 C.2     1  UNL1       -0.0115
      8 C           1.3128   -0.1501   -0.0771 C.2     1  UNL1        0.1404
      9 O           1.0053   -1.1811    0.7956 O.3     1  UNL1       -0.4217
     10 C           2.2036   -1.7645    1.1511 C.2     1  UNL1        0.3451
     11 O           2.3820   -2.7489    1.9368 O.2     1  UNL1       -0.2445
     12 C           3.2998   -1.0793    0.4811 C.ar    1  UNL1        0.0700
     13 C           4.6773   -1.2222    0.4587 C.ar    1  UNL1       -0.0471
     14 C           5.4735   -0.3889   -0.3020 C.ar    1  UNL1       -0.0609
     15 C           4.9186    0.6276   -1.0759 C.ar    1  UNL1       -0.0610
     16 C           3.5466    0.7687   -1.0527 C.ar    1  UNL1       -0.0503
     17 C           2.7642   -0.0710   -0.2881 C.ar    1  UNL1        0.0314
     18 C          -1.5764    0.2102    0.8009 C.ar    1  UNL1       -0.0510
     19 C          -2.9538    0.1436    0.9071 C.ar    1  UNL1       -0.0194
     20 H          -6.9110    0.3770    1.0776 H       1  UNL1        0.0660
     21 H          -5.3285    0.5293    1.9462 H       1  UNL1        0.0660
     22 H          -5.8251   -1.0949    1.3063 H       1  UNL1        0.0660
     23 H          -3.8087    0.9357   -2.2367 H       1  UNL1        0.0654
     24 H          -1.4152    1.0619   -2.4607 H       1  UNL1        0.0625
     25 H           0.7719    1.4114   -1.2970 H       1  UNL1        0.0660
     26 H           5.0804   -2.0202    1.0697 H       1  UNL1        0.0626
     27 H           6.5506   -0.5095   -0.3121 H       1  UNL1        0.0618
     28 H           5.5539    1.2753   -1.6689 H       1  UNL1        0.0618
     29 H           3.0661    1.5525   -1.6442 H       1  UNL1        0.0625
     30 H          -0.9227    0.0087    1.6478 H       1  UNL1        0.0625
     31 H          -3.3886   -0.1164    1.8604 H       1  UNL1        0.0654
@<TRIPOS>BOND
     1     1     2    1
     2     2     3    1
     3     3     4   ar
     4     4     5   ar
     5     5     6   ar
     6     6     7    1
     7     7     8    2
     8     8     9    1
     9     9    10    1
    10    10    11    2
    11    10    12    1
    12    12    13   ar
    13    13    14   ar
    14    14    15   ar
    15    15    16   ar
    16    16    17   ar
    17     6    18   ar
    18    18    19   ar
    19    19     3   ar
    20    17     8    1
    21    17    12   ar
    22     1    20    1
    23     1    21    1
    24     1    22    1
    25     4    23    1
    26     5    24    1
    27     7    25    1
    28    13    26    1
    29    14    27    1
    30    15    28    1
    31    16    29    1
    32    18    30    1
    33    19    31    1
@<TRIPOS>MOLECULE
50333247
 39 41 0 0 0
SMALL
GASTEIGER

@<TRIPOS>ATOM
      1 N          -3.8675   -0.0731    2.7209 N.am    1  UNL1       -0.3253
      2 C          -3.0077    0.0625    1.6087 C.2     1  UNL1        0.2433
      3 O          -1.8203   -0.2813    1.7149 O.2     1  UNL1       -0.2704
      4 C          -3.5281    0.5981    0.3716 C.ar    1  UNL1        0.0579
      5 C          -4.8691    1.0179    0.2960 C.ar    1  UNL1       -0.0478
      6 C          -5.3825    1.5409   -0.8700 C.ar    1  UNL1       -0.0609
      7 C          -4.5449    1.6388   -1.9525 C.ar    1  UNL1       -0.0600
      8 C          -3.2318    1.2309   -1.8892 C.ar    1  UNL1       -0.0395
      9 C          -2.6978    0.6989   -0.7155 C.ar    1  UNL1        0.0502
     10 N          -1.3526    0.2668   -0.6040 N.am    1  UNL1       -0.2507
     11 C          -0.9343   -1.0456   -0.9731 C.3     1  UNL1        0.0414
     12 C           0.4903   -1.2892   -0.7590 C.2     1  UNL1       -0.0445
     13 C           1.3970   -0.4502   -0.3078 C.2     1  UNL1        0.0397
     14 C           2.8112   -0.8069   -0.1332 C.ar    1  UNL1        0.0024
     15 C           3.3099   -2.0658   -0.4306 C.ar    1  UNL1       -0.0524
     16 C           4.6518   -2.4025   -0.2647 C.ar    1  UNL1       -0.0547
     17 C           5.5216   -1.4571    0.2114 C.ar    1  UNL1        0.0156
     18 C           5.0843   -0.2063    0.5186 C.ar    1  UNL1        0.2738
     19 N           5.9734    0.7894    1.0146 N.pl3   1  UNL1        0.0796
     20 O           5.5605    1.9202    1.2889 O.2     1  UNL1        0.0414
     21 O           7.2806    0.4722    1.1795 O.co2   1  UNL1       -0.5760
     22 C           3.7301    0.1053    0.3423 C.ar    1  UNL1        0.0245
     23 N           0.9826    0.8530    0.0368 N.am    1  UNL1       -0.2687
     24 C          -0.3920    1.1936   -0.1179 C.2     1  UNL1        0.3110
     25 O          -0.7770    2.3664    0.1884 O.2     1  UNL1       -0.2519
     26 H          -4.8788   -0.3735    2.6360 H       1  UNL1        0.1453
     27 H          -3.5644    0.1152    3.7160 H       1  UNL1        0.1453
     28 H          -5.4993    0.9205    1.1848 H       1  UNL1        0.0626
     29 H          -6.4259    1.8573   -0.8970 H       1  UNL1        0.0618
     30 H          -4.9208    2.0430   -2.8719 H       1  UNL1        0.0618
     31 H          -2.5660    1.3089   -2.7505 H       1  UNL1        0.0636
     32 H          -1.1497   -1.1972   -2.0608 H       1  UNL1        0.0513
     33 H          -1.5466   -1.8463   -0.4722 H       1  UNL1        0.0513
     34 H           0.8199   -2.3151   -1.0166 H       1  UNL1        0.0606
     35 H           2.6662   -2.8462   -0.8084 H       1  UNL1        0.0624
     36 H           5.0341   -3.3793   -0.4963 H       1  UNL1        0.0620
     37 H           6.5757   -1.6784    0.3554 H       1  UNL1        0.0685
     38 H           3.4657    1.0976    0.6026 H       1  UNL1        0.0692
     39 H           1.6022    1.6168    0.4055 H       1  UNL1        0.1564
@<TRIPOS>UNITY_ATOM_ATTR
19 1
charge 1
21 1
charge -1
@<TRIPOS>BOND
     1     1     2   am
     2     2     3    2
     3     2     4    1
     4     4     5   ar
     5     5     6   ar
     6     6     7   ar
     7     7     8   ar
     8     8     9   ar
     9     9    10    1
    10    10    11    1
    11    11    12    1
    12    12    13    2
    13    13    14    1
    14    14    15   ar
    15    15    16   ar
    16    16    17   ar
    17    17    18   ar
    18    18    19    1
    19    19    20    2
    20    19    21    1
    21    18    22   ar
    22    13    23    1
    23    23    24   am
    24    24    25    2
    25     9     4   ar
    26    24    10   am
    27    22    14   ar
    28     1    26    1
    29     1    27    1
    30     5    28    1
    31     6    29    1
    32     7    30    1
    33     8    31    1
    34    11    32    1
    35    11    33    1
    36    12    34    1
    37    15    35    1
    38    16    36    1
    39    17    37    1
    40    22    38    1
    41    23    39    1
@<TRIPOS>MOLECULE
50333243
 39 41 0 0 0
SMALL
GASTEIGER

@<TRIPOS>ATOM
      1 C          -3.9710   -0.0326    2.4282 C.3     1  UNL1        0.0789
      2 O          -3.0485    0.1322    1.3705 O.3     1  UNL1       -0.4932
      3 C          -3.4598    0.7230    0.2141 C.ar    1  UNL1        0.1414
      4 C          -4.7850    1.1646    0.0711 C.ar    1  UNL1       -0.0181
      5 C          -5.2193    1.7643   -1.0911 C.ar    1  UNL1       -0.0582
      6 C          -4.3109    1.9198   -2.1159 C.ar    1  UNL1       -0.0598
      7 C          -2.9799    1.4841   -1.9914 C.ar    1  UNL1       -0.0366
      8 C          -2.5747    0.8899   -0.8223 C.ar    1  UNL1        0.0797
      9 N          -1.2257    0.4215   -0.6302 N.am    1  UNL1       -0.2480
     10 C          -0.8887   -0.9193   -0.9901 C.3     1  UNL1        0.0415
     11 C           0.5114   -1.2789   -0.7486 C.2     1  UNL1       -0.0445
     12 C           1.4443   -0.4951   -0.2464 C.2     1  UNL1        0.0397
     13 C           2.8344   -0.9518   -0.0398 C.ar    1  UNL1        0.0024
     14 C           3.2457   -2.2282   -0.3591 C.ar    1  UNL1       -0.0524
     15 C           4.5616   -2.6393   -0.1565 C.ar    1  UNL1       -0.0547
     16 C           5.4951   -1.7963    0.3656 C.ar    1  UNL1        0.0156
     17 C           5.1246   -0.5138    0.6975 C.ar    1  UNL1        0.2738
     18 N           6.0660    0.3966    1.2440 N.pl3   1  UNL1        0.0796
     19 O           7.2338    0.0090    1.4163 O.2     1  UNL1        0.0414
     20 O           5.7486    1.6816    1.5905 O.co2   1  UNL1       -0.5760
     21 C           3.7962   -0.1220    0.4851 C.ar    1  UNL1        0.0245
     22 N           1.0906    0.8350    0.1057 N.am    1  UNL1       -0.2687
     23 C          -0.2391    1.2749   -0.0909 C.2     1  UNL1        0.3111
     24 O          -0.5350    2.4451    0.2227 O.2     1  UNL1       -0.2519
     25 H          -4.2310    1.0089    2.7723 H       1  UNL1        0.0660
     26 H          -4.9032   -0.5466    2.1088 H       1  UNL1        0.0660
     27 H          -3.4803   -0.5236    3.2934 H       1  UNL1        0.0660
     28 H          -5.5070    1.0454    0.8747 H       1  UNL1        0.0655
     29 H          -6.2519    2.1122   -1.2118 H       1  UNL1        0.0619
     30 H          -4.6678    2.3926   -3.0217 H       1  UNL1        0.0618
     31 H          -2.2818    1.6190   -2.8167 H       1  UNL1        0.0637
     32 H          -1.1419   -1.0401   -2.0794 H       1  UNL1        0.0513
     33 H          -1.5664   -1.6452   -0.4524 H       1  UNL1        0.0513
     34 H           0.7835   -2.3013   -1.0191 H       1  UNL1        0.0606
     35 H           2.5691   -2.9331   -0.7688 H       1  UNL1        0.0624
     36 H           4.8376   -3.6370   -0.4178 H       1  UNL1        0.0620
     37 H           6.5159   -2.1049    0.5263 H       1  UNL1        0.0685
     38 H           3.5928    0.8938    0.7713 H       1  UNL1        0.0692
     39 H           1.8173    1.4956    0.5135 H       1  UNL1        0.1564
@<TRIPOS>UNITY_ATOM_ATTR
18 1
charge 1
20 1
charge -1
@<TRIPOS>BOND
     1     1     2    1
     2     2     3    1
     3     3     4   ar
     4     4     5   ar
     5     5     6   ar
     6     6     7   ar
     7     7     8   ar
     8     8     9    1
     9     9    10    1
    10    10    11    1
    11    11    12    2
    12    12    13    1
    13    13    14   ar
    14    14    15   ar
    15    15    16   ar
    16    16    17   ar
    17    17    18    1
    18    18    19    2
    19    18    20    1
    20    17    21   ar
    21    12    22    1
    22    22    23   am
    23    23    24    2
    24     8     3   ar
    25    23     9   am
    26    21    13   ar
    27     1    25    1
    28     1    26    1
    29     1    27    1
    30     4    28    1
    31     5    29    1
    32     6    30    1
    33     7    31    1
    34    10    32    1
    35    10    33    1
    36    11    34    1
    37    14    35    1
    38    15    36    1
    39    16    37    1
    40    21    38    1
    41    22    39    1
@<TRIPOS>MOLECULE
50333246
 39 41 0 0 0
SMALL
GASTEIGER

@<TRIPOS>ATOM
      1 O          -1.2727   -0.7207    2.1401 O.2     1  UNL1       -0.2519
      2 C          -0.6764   -0.5281    1.0614 C.2     1  UNL1        0.3110
      3 N           0.7275   -0.2066    1.0628 N.am    1  UNL1       -0.2687
      4 C           1.4179    0.0142   -0.1621 C.2     1  UNL1        0.0397
      5 C           2.8551    0.3485   -0.1601 C.ar    1  UNL1        0.0024
      6 C           3.5914    0.5881   -1.2886 C.ar    1  UNL1       -0.0524
      7 C           4.9458    0.8997   -1.2682 C.ar    1  UNL1       -0.0547
      8 C           5.5736    0.9703   -0.0604 C.ar    1  UNL1        0.0156
      9 C           4.8980    0.7418    1.1144 C.ar    1  UNL1        0.2738
     10 N           5.5696    0.8187    2.3776 N.pl3   1  UNL1        0.0796
     11 O           4.9713    0.6161    3.4296 O.2     1  UNL1        0.0414
     12 O           6.9044    1.1248    2.3989 O.co2   1  UNL1       -0.5760
     13 C           3.5436    0.4330    1.0497 C.ar    1  UNL1        0.0245
     14 C           0.7152   -0.0928   -1.2603 C.2     1  UNL1       -0.0445
     15 C          -0.7212   -0.4185   -1.3873 C.3     1  UNL1        0.0414
     16 N          -1.4006   -0.6316   -0.1400 N.am    1  UNL1       -0.2511
     17 C          -2.7888   -0.9598   -0.1707 C.ar    1  UNL1        0.0434
     18 C          -3.2135   -2.2674   -0.3310 C.ar    1  UNL1       -0.0399
     19 C          -4.5510   -2.5992   -0.3453 C.ar    1  UNL1       -0.0600
     20 C          -5.5052   -1.6199   -0.1978 C.ar    1  UNL1       -0.0613
     21 C          -5.1118   -0.3129   -0.0370 C.ar    1  UNL1       -0.0546
     22 C          -3.7443    0.0109   -0.0242 C.ar    1  UNL1       -0.0007
     23 C          -3.3732    1.4165    0.1551 C.3     1  UNL1        0.0710
     24 O          -2.9858    2.0826   -0.9826 O.3     1  UNL1       -0.3904
     25 H           1.1901   -0.1484    2.0017 H       1  UNL1        0.1564
     26 H           3.0905    0.5328   -2.2552 H       1  UNL1        0.0624
     27 H           5.4444    1.0728   -2.2053 H       1  UNL1        0.0620
     28 H           6.6387    1.2150   -0.0463 H       1  UNL1        0.0685
     29 H           3.0540    0.2622    1.9843 H       1  UNL1        0.0692
     30 H           1.2883    0.0874   -2.1964 H       1  UNL1        0.0606
     31 H          -0.7481   -1.3707   -2.0157 H       1  UNL1        0.0513
     32 H          -1.2485    0.3136   -2.0586 H       1  UNL1        0.0513
     33 H          -2.4445   -3.0236   -0.4454 H       1  UNL1        0.0636
     34 H          -4.8767   -3.6136   -0.4696 H       1  UNL1        0.0618
     35 H          -6.5828   -1.8284   -0.2022 H       1  UNL1        0.0618
     36 H          -5.8587    0.4640    0.0794 H       1  UNL1        0.0622
     37 H          -2.5168    1.4287    0.8915 H       1  UNL1        0.0608
     38 H          -4.1880    1.9548    0.7060 H       1  UNL1        0.0608
     39 H          -2.6106    2.9457   -0.7404 H       1  UNL1        0.2098
@<TRIPOS>UNITY_ATOM_ATTR
10 1
charge 1
12 1
charge -1
@<TRIPOS>BOND
     1     1     2    2
     2     2     3   am
     3     3     4    1
     4     4     5    1
     5     5     6   ar
     6     6     7   ar
     7     7     8   ar
     8     8     9   ar
     9     9    10    1
    10    10    11    2
    11    10    12    1
    12     9    13   ar
    13     4    14    2
    14    14    15    1
    15    15    16    1
    16    16    17    1
    17    17    18   ar
    18    18    19   ar
    19    19    20   ar
    20    20    21   ar
    21    21    22   ar
    22    22    23    1
    23    23    24    1
    24    16     2   am
    25    22    17   ar
    26    13     5   ar
    27     3    25    1
    28     6    26    1
    29     7    27    1
    30     8    28    1
    31    13    29    1
    32    14    30    1
    33    15    31    1
    34    15    32    1
    35    18    33    1
    36    19    34    1
    37    20    35    1
    38    21    36    1
    39    23    37    1
    40    23    38    1
    41    24    39    1
@<TRIPOS>MOLECULE
51324127
 65 69 0 0 0
SMALL
GASTEIGER

@<TRIPOS>ATOM
      1 C           7.7275    3.1552    3.0442 C.3     1  UNL1        0.0790
      2 O           7.5217    2.3664    1.8740 O.3     1  UNL1       -0.4915
      3 C           6.3410    1.6753    1.6669 C.ar    1  UNL1        0.1615
      4 C           5.2813    1.6875    2.5549 C.ar    1  UNL1       -0.0157
      5 C           4.1302    0.9862    2.3076 C.ar    1  UNL1       -0.0508
      6 C           4.0149    0.2506    1.1532 C.ar    1  UNL1       -0.0194
      7 C           2.8148   -0.5048    0.8124 C.2     1  UNL1       -0.0281
      8 CA          1.6228    0.0309    0.7854 C.2     1  UNL1        0.0967
      9 N           1.4238    1.3967    1.0831 N.am    1  UNL1       -0.2798
     10 C           0.0808    1.8933    1.0524 C.2     1  UNL1        0.2382
     11 O          -0.0972    3.0540    1.5460 O.2     1  UNL1       -0.2734
     12 CA         -1.0522    1.1565    0.5013 C.3     1  UNL1        0.1077
     13 C          -2.3488    1.4164    1.2836 C.3     1  UNL1        0.0000
     14 C          -3.4106    0.8725    0.3958 C.ar    1  UNL1       -0.0362
     15 C          -4.5267    1.5701    0.0153 C.ar    1  UNL1       -0.0127
     16 C          -5.4896    1.0054   -0.8333 C.ar    1  UNL1        0.1618
     17 O          -6.6090    1.7701   -1.1892 O.3     1  UNL1       -0.4914
     18 C          -6.7098    3.0666   -0.6488 C.3     1  UNL1        0.0790
     19 C          -5.3231   -0.2817   -1.3024 C.ar    1  UNL1        0.1618
     20 O          -6.2894   -0.8179   -2.1394 O.3     1  UNL1       -0.4914
     21 C          -6.1728   -2.1450   -2.6583 C.3     1  UNL1        0.0790
     22 C          -4.1882   -0.9762   -0.9082 C.ar    1  UNL1       -0.0108
     23 C          -3.2452   -0.4139   -0.0738 C.ar    1  UNL1       -0.0157
     24 C          -2.0015   -1.1434    0.3644 C.3     1  UNL1        0.0780
     25 C          -1.7876   -2.3292   -0.4896 C.ar    1  UNL1       -0.0226
     26 C          -1.2699   -2.1780   -1.7476 C.ar    1  UNL1       -0.0565
     27 C          -1.0623   -3.2750   -2.5573 C.ar    1  UNL1       -0.0614
     28 C          -1.3616   -4.5546   -2.1452 C.ar    1  UNL1       -0.0617
     29 C          -1.8869   -4.7250   -0.8731 C.ar    1  UNL1       -0.0614
     30 C          -2.0908   -3.6223   -0.0713 C.ar    1  UNL1       -0.0565
     31 N          -0.8742   -0.2538    0.4399 N.am    1  UNL1       -0.2735
     32 C           0.4292   -0.8045    0.4568 C.2     1  UNL1        0.2622
     33 O           0.6523   -2.0150    0.1995 O.2     1  UNL1       -0.2686
     34 C           5.0611    0.2280    0.2597 C.ar    1  UNL1       -0.0091
     35 C           6.2174    0.9273    0.4993 C.ar    1  UNL1        0.1620
     36 O           7.2637    0.8872   -0.4271 O.3     1  UNL1       -0.4914
     37 C           7.1138    0.1283   -1.6097 C.3     1  UNL1        0.0790
     38 H           7.6906    2.4701    3.9170 H       1  UNL1        0.0660
     39 H           8.7206    3.6055    2.9935 H       1  UNL1        0.0660
     40 H           6.9886    3.9557    3.0736 H       1  UNL1        0.0660
     41 H           5.3776    2.2753    3.4749 H       1  UNL1        0.0655
     42 H           3.3425    1.0182    3.0421 H       1  UNL1        0.0625
     43 H           2.9034   -1.5802    0.5644 H       1  UNL1        0.0644
     44 H           2.2151    2.0263    1.2996 H       1  UNL1        0.1550
     45 HA         -1.2751    1.5555   -0.5312 H       1  UNL1        0.0600
     46 H          -2.4834    2.4771    1.4991 H       1  UNL1        0.0336
     47 H          -2.3405    0.7912    2.2016 H       1  UNL1        0.0336
     48 H          -4.6511    2.5767    0.3859 H       1  UNL1        0.0658
     49 H          -5.8138    3.6420   -0.9747 H       1  UNL1        0.0660
     50 H          -6.8104    3.0150    0.4387 H       1  UNL1        0.0660
     51 H          -7.6480    3.4992   -1.0791 H       1  UNL1        0.0660
     52 H          -5.1239   -2.3955   -2.9401 H       1  UNL1        0.0660
     53 H          -6.7818   -2.2374   -3.6026 H       1  UNL1        0.0660
     54 H          -6.6093   -2.8240   -1.9298 H       1  UNL1        0.0660
     55 H          -4.0473   -1.9900   -1.2694 H       1  UNL1        0.0659
     56 H          -2.2677   -1.5460    1.3837 H       1  UNL1        0.0601
     57 H          -1.0036   -1.2111   -2.1621 H       1  UNL1        0.0621
     58 H          -0.6501   -3.1811   -3.5692 H       1  UNL1        0.0618
     59 H          -1.2069   -5.4348   -2.7670 H       1  UNL1        0.0618
     60 H          -2.1267   -5.7395   -0.5370 H       1  UNL1        0.0618
     61 H          -2.5077   -3.7433    0.9375 H       1  UNL1        0.0621
     62 H           4.9299   -0.3745   -0.6508 H       1  UNL1        0.0661
     63 H           7.1325   -0.9336   -1.3416 H       1  UNL1        0.0660
     64 H           6.1973    0.4372   -2.1673 H       1  UNL1        0.0660
     65 H           7.9506    0.3619   -2.3138 H       1  UNL1        0.0660
@<TRIPOS>BOND
     1     1     2    1
     2     2     3    1
     3     3     4   ar
     4     4     5   ar
     5     5     6   ar
     6     6     7    1
     7     7     8    2
     8     8     9    1
     9     9    10   am
    10    10    11    2
    11    10    12    1
    12    12    13    1
    13    13    14    1
    14    14    15   ar
    15    15    16   ar
    16    16    17    1
    17    17    18    1
    18    16    19   ar
    19    19    20    1
    20    20    21    1
    21    19    22   ar
    22    22    23   ar
    23    23    24    1
    24    24    25    1
    25    25    26   ar
    26    26    27   ar
    27    27    28   ar
    28    28    29   ar
    29    29    30   ar
    30    24    31    1
    31    31    32   am
    32    32    33    2
    33     6    34   ar
    34    34    35   ar
    35    35    36    1
    36    36    37    1
    37    35     3   ar
    38    32     8    1
    39    31    12    1
    40    23    14   ar
    41    30    25   ar
    42     1    38    1
    43     1    39    1
    44     1    40    1
    45     4    41    1
    46     5    42    1
    47     7    43    1
    48     9    44    1
    49    12    45    1
    50    13    46    1
    51    13    47    1
    52    15    48    1
    53    18    49    1
    54    18    50    1
    55    18    51    1
    56    21    52    1
    57    21    53    1
    58    21    54    1
    59    22    55    1
    60    24    56    1
    61    26    57    1
    62    27    58    1
    63    28    59    1
    64    29    60    1
    65    30    61    1
    66    34    62    1
    67    37    63    1
    68    37    64    1
    69    37    65    1
@<TRIPOS>MOLECULE
50333254
 39 41 0 0 0
SMALL
GASTEIGER

@<TRIPOS>ATOM
      1 C          -1.0954    0.1119    2.1852 C.3     1  UNL1       -0.0402
      2 C          -0.3556    0.0043    0.8539 C.2     1  UNL1       -0.0332
      3 C          -1.0180   -0.1367   -0.2597 C.2     1  UNL1        0.0426
      4 C          -2.4771   -0.1906   -0.2454 C.ar    1  UNL1        0.0026
      5 C          -3.0936   -1.2346   -0.9302 C.ar    1  UNL1       -0.0524
      6 C          -4.4668   -1.3422   -1.0011 C.ar    1  UNL1       -0.0547
      7 C          -5.2829   -0.4233   -0.3989 C.ar    1  UNL1        0.0156
      8 C          -4.6834    0.6137    0.2808 C.ar    1  UNL1        0.2738
      9 N          -5.4922    1.5966    0.9232 N.pl3   1  UNL1        0.0796
     10 O          -4.9539    2.5338    1.5321 O.2     1  UNL1        0.0414
     11 O          -6.8513    1.5057    0.8665 O.co2   1  UNL1       -0.5760
     12 C          -3.2894    0.7250    0.3541 C.ar    1  UNL1        0.0245
     13 N          -0.3445   -0.2224   -1.5383 N.am    1  UNL1       -0.2685
     14 C           1.0447   -0.1426   -1.5097 C.2     1  UNL1        0.3111
     15 O           1.6745   -0.2169   -2.6280 O.2     1  UNL1       -0.2519
     16 N           1.7718    0.0158   -0.3011 N.am    1  UNL1       -0.2478
     17 C           3.2099    0.1336   -0.3941 C.ar    1  UNL1        0.0795
     18 C           3.7974    1.3663   -0.5219 C.ar    1  UNL1       -0.0367
     19 C           5.1999    1.4623   -0.6084 C.ar    1  UNL1       -0.0598
     20 C           5.9523    0.3113   -0.5623 C.ar    1  UNL1       -0.0582
     21 C           5.3672   -0.9433   -0.4329 C.ar    1  UNL1       -0.0183
     22 C           3.9688   -0.9984   -0.3500 C.ar    1  UNL1        0.1382
     23 O           3.3293   -2.2204   -0.2202 O.3     1  UNL1       -0.5049
     24 C           1.1089    0.0614    0.9522 C.3     1  UNL1        0.0442
     25 H          -1.1517    1.1836    2.4048 H       1  UNL1        0.0276
     26 H          -2.0794   -0.3253    2.1132 H       1  UNL1        0.0276
     27 H          -0.4527   -0.3678    2.9633 H       1  UNL1        0.0276
     28 H          -2.5285   -2.0095   -1.4383 H       1  UNL1        0.0624
     29 H          -4.9554   -2.1621   -1.5384 H       1  UNL1        0.0620
     30 H          -6.3760   -0.4769   -0.4335 H       1  UNL1        0.0685
     31 H          -2.8812    1.5577    0.8865 H       1  UNL1        0.0692
     32 H          -0.8875   -0.3370   -2.4188 H       1  UNL1        0.1564
     33 H           3.1643    2.2421   -0.5540 H       1  UNL1        0.0637
     34 H           5.6154    2.4557   -0.7087 H       1  UNL1        0.0618
     35 H           7.0413    0.3851   -0.6281 H       1  UNL1        0.0619
     36 H           5.9617   -1.8495   -0.3969 H       1  UNL1        0.0655
     37 H           3.5916   -2.7755    0.5969 H       1  UNL1        0.2922
     38 H           1.4206    0.9480    1.5689 H       1  UNL1        0.0516
     39 H           1.4968   -0.8390    1.5389 H       1  UNL1        0.0516
@<TRIPOS>UNITY_ATOM_ATTR
9 1
charge 1
11 1
charge -1
@<TRIPOS>BOND
     1     1     2    1
     2     2     3    2
     3     3     4    1
     4     4     5   ar
     5     5     6   ar
     6     6     7   ar
     7     7     8   ar
     8     8     9    1
     9     9    10    2
    10     9    11    1
    11     8    12   ar
    12     3    13    1
    13    13    14   am
    14    14    15    2
    15    14    16   am
    16    16    17    1
    17    17    18   ar
    18    18    19   ar
    19    19    20   ar
    20    20    21   ar
    21    21    22   ar
    22    22    23    1
    23    16    24    1
    24    24     2    1
    25    12     4   ar
    26    22    17   ar
    27     1    25    1
    28     1    26    1
    29     1    27    1
    30     5    28    1
    31     6    29    1
    32     7    30    1
    33    12    31    1
    34    13    32    1
    35    18    33    1
    36    19    34    1
    37    20    35    1
    38    21    36    1
    39    23    37    1
    40    24    38    1
    41    24    39    1
@<TRIPOS>MOLECULE
51028034
 42 43 0 0 0
SMALL
GASTEIGER

@<TRIPOS>ATOM
      1 C           6.7619   -0.3971    0.6615 C.3     1  UNL1        0.0788
      2 O           6.0952    0.0320   -0.5110 O.3     1  UNL1       -0.4951
      3 C           4.7041    0.1818   -0.4994 C.ar    1  UNL1        0.1201
      4 C           3.9555   -0.0763    0.6239 C.ar    1  UNL1       -0.0192
      5 C           2.5709    0.0980    0.5524 C.ar    1  UNL1       -0.0462
      6 C           1.9827    0.5132   -0.6029 C.ar    1  UNL1        0.0372
      7 C           0.5421    0.6909   -0.6651 C.2     1  UNL1        0.2483
      8 O          -0.0223    1.0809   -1.7459 O.2     1  UNL1       -0.2699
      9 N          -0.2669    0.4450    0.4398 N.am    1  UNL1       -0.2812
     10 C          -1.7007    0.6242    0.3700 C.ar    1  UNL1        0.0374
     11 C          -2.2897    1.8344    0.6752 C.ar    1  UNL1       -0.0373
     12 C          -3.6577    1.9961    0.6058 C.ar    1  UNL1       -0.0487
     13 C          -4.3088    3.3025    0.9339 C.3     1  UNL1       -0.0397
     14 C          -4.3937    0.8956    0.2197 C.ar    1  UNL1       -0.0585
     15 C          -3.8030   -0.3154   -0.0856 C.ar    1  UNL1       -0.0563
     16 C          -2.4327   -0.4801   -0.0169 C.ar    1  UNL1       -0.0236
     17 C          -1.7841   -1.7769   -0.3424 C.3     1  UNL1       -0.0198
     18 C          -1.6445   -2.6721    0.8551 C.3     1  UNL1       -0.0586
     19 C          -2.5531   -2.5084   -1.4355 C.3     1  UNL1       -0.0586
     20 C           2.7419    0.7712   -1.7296 C.ar    1  UNL1       -0.0462
     21 C           4.1033    0.6038   -1.6722 C.ar    1  UNL1       -0.0192
     22 H           7.8283   -0.5754    0.4322 H       1  UNL1        0.0660
     23 H           6.6404    0.4270    1.4208 H       1  UNL1        0.0660
     24 H           6.2635   -1.2833    1.1045 H       1  UNL1        0.0660
     25 H           4.4457   -0.4018    1.5190 H       1  UNL1        0.0654
     26 H           2.0310   -0.1248    1.4832 H       1  UNL1        0.0626
     27 H           0.0885    0.1273    1.3584 H       1  UNL1        0.1551
     28 H          -1.6653    2.6863    0.9787 H       1  UNL1        0.0639
     29 H          -3.5837    4.1330    0.8211 H       1  UNL1        0.0278
     30 H          -5.1616    3.5227    0.2692 H       1  UNL1        0.0278
     31 H          -4.7047    3.3082    1.9713 H       1  UNL1        0.0278
     32 H          -5.4769    1.0404    0.1697 H       1  UNL1        0.0620
     33 H          -4.4019   -1.1624   -0.3855 H       1  UNL1        0.0621
     34 H          -0.7522   -1.6274   -0.7552 H       1  UNL1        0.0344
     35 H          -1.5073   -2.1465    1.8022 H       1  UNL1        0.0235
     36 H          -0.7691   -3.3597    0.7325 H       1  UNL1        0.0235
     37 H          -2.5370   -3.3610    0.8585 H       1  UNL1        0.0235
     38 H          -3.3707   -3.1227   -1.0401 H       1  UNL1        0.0235
     39 H          -1.8666   -3.1162   -2.0351 H       1  UNL1        0.0235
     40 H          -3.0271   -1.7307   -2.0978 H       1  UNL1        0.0235
     41 H           2.2615    1.1075   -2.6635 H       1  UNL1        0.0626
     42 H           4.6646    0.8162   -2.5766 H       1  UNL1        0.0654
@<TRIPOS>BOND
     1     1     2    1
     2     2     3    1
     3     3     4   ar
     4     4     5   ar
     5     5     6   ar
     6     6     7    1
     7     7     8    2
     8     7     9   am
     9     9    10    1
    10    10    11   ar
    11    11    12   ar
    12    12    13    1
    13    12    14   ar
    14    14    15   ar
    15    15    16   ar
    16    16    17    1
    17    17    18    1
    18    17    19    1
    19     6    20   ar
    20    20    21   ar
    21    21     3   ar
    22    16    10   ar
    23     1    22    1
    24     1    23    1
    25     1    24    1
    26     4    25    1
    27     5    26    1
    28     9    27    1
    29    11    28    1
    30    13    29    1
    31    13    30    1
    32    13    31    1
    33    14    32    1
    34    15    33    1
    35    17    34    1
    36    18    35    1
    37    18    36    1
    38    18    37    1
    39    19    38    1
    40    19    39    1
    41    19    40    1
    42    20    41    1
    43    21    42    1
@<TRIPOS>MOLECULE
51324157
 88 91 0 0 0
SMALL
GASTEIGER

@<TRIPOS>ATOM
      1 C           5.3346   -2.8439   -0.8663 C.3     1  UNL1       -0.0633
      2 C           4.6898   -2.4305    0.4157 C.3     1  UNL1       -0.0329
      3 C           4.4549   -0.9428    0.5329 C.3     1  UNL1        0.0527
      4 C           5.7084   -0.1604    0.4527 C.ar    1  UNL1       -0.0201
      5 C           6.8534   -0.6212    1.0999 C.ar    1  UNL1       -0.0111
      6 C           8.0440    0.0686    1.0608 C.ar    1  UNL1        0.1618
      7 O           9.1843   -0.4270    1.7266 O.3     1  UNL1       -0.4914
      8 C           9.1681   -1.6257    2.4483 C.3     1  UNL1        0.0790
      9 C           8.1021    1.2521    0.3586 C.ar    1  UNL1        0.1618
     10 O           9.3066    1.9341    0.3293 O.3     1  UNL1       -0.4914
     11 C           9.4186    3.1593   -0.3803 C.3     1  UNL1        0.0790
     12 C           6.9681    1.6969   -0.2755 C.ar    1  UNL1       -0.0128
     13 C           5.7773    1.0330   -0.2525 C.ar    1  UNL1       -0.0373
     14 C           4.5540    1.5493   -0.9693 C.3     1  UNL1       -0.0113
     15 C           3.9112    0.2814   -1.5498 C.3     1  UNL1        0.0207
     16 N           3.4670   -0.4773   -0.4159 N.am    1  UNL1       -0.2783
     17 C           2.1020   -0.7668   -0.2332 C.2     1  UNL1        0.3027
     18 O           1.7804   -1.4483    0.8113 O.2     1  UNL1       -0.2526
     19 N           1.0547   -0.3725   -1.1014 N.am    1  UNL1       -0.2989
     20 C          -0.3360   -0.7311   -0.8173 C.3     1  UNL1        0.0170
     21 C          -1.2502   -0.2087   -1.8997 C.3     1  UNL1       -0.0116
     22 C          -2.6706   -0.5514   -1.6479 C.ar    1  UNL1       -0.0372
     23 C          -3.2216   -1.6844   -2.2804 C.ar    1  UNL1       -0.0128
     24 C          -4.5130   -2.0920   -2.0858 C.ar    1  UNL1        0.1618
     25 O          -5.0365   -3.2187   -2.7240 O.3     1  UNL1       -0.4914
     26 C          -4.2670   -4.0019   -3.6067 C.3     1  UNL1        0.0790
     27 C          -5.2944   -1.3435   -1.2264 C.ar    1  UNL1        0.1618
     28 O          -6.5924   -1.7801   -1.0509 O.3     1  UNL1       -0.4914
     29 C          -7.5472   -1.1243   -0.2133 C.3     1  UNL1        0.0790
     30 C          -4.7631   -0.2350   -0.6058 C.ar    1  UNL1       -0.0110
     31 C          -3.4432    0.1934   -0.7951 C.ar    1  UNL1       -0.0162
     32 C          -2.9317    1.4067   -0.1456 C.3     1  UNL1        0.1069
     33 C          -3.6549    2.5793   -0.8360 C.3     1  UNL1       -0.0290
     34 C          -3.3816    2.6230   -2.2996 C.3     1  UNL1       -0.0632
     35 S          -3.0336    1.4880    1.5872 S.O2    1  UNL1        0.0038
     36 O          -2.1278    0.4883    2.2316 O.2     1  UNL1       -0.1688
     37 O          -2.5456    2.8711    2.0076 O.2     1  UNL1       -0.1688
     38 C          -4.6228    1.2860    2.2679 C.ar    1  UNL1        0.0889
     39 C          -5.4806    2.3653    2.2891 C.ar    1  UNL1       -0.0366
     40 C          -6.7352    2.2539    2.8397 C.ar    1  UNL1       -0.0570
     41 C          -7.2051    1.0816    3.3936 C.ar    1  UNL1       -0.0503
     42 C          -8.5691    0.9821    3.9845 C.3     1  UNL1       -0.0397
     43 C          -6.3181    0.0156    3.3563 C.ar    1  UNL1       -0.0570
     44 C          -5.0612    0.0986    2.8134 C.ar    1  UNL1       -0.0366
     45 H           6.1195   -2.1661   -1.2303 H       1  UNL1        0.0230
     46 H           5.8625   -3.8205   -0.6541 H       1  UNL1        0.0230
     47 H           4.5910   -3.1169   -1.6567 H       1  UNL1        0.0230
     48 H           5.2563   -2.7555    1.2909 H       1  UNL1        0.0284
     49 H           3.6867   -2.9153    0.4613 H       1  UNL1        0.0284
     50 H           4.0837   -0.7861    1.5897 H       1  UNL1        0.0551
     51 H           6.8401   -1.5583    1.6686 H       1  UNL1        0.0659
     52 H           8.6872   -2.4001    1.7959 H       1  UNL1        0.0660
     53 H           8.6533   -1.5890    3.4092 H       1  UNL1        0.0660
     54 H          10.2186   -1.9618    2.5832 H       1  UNL1        0.0660
     55 H          10.5144    3.3498   -0.5063 H       1  UNL1        0.0660
     56 H           8.9242    3.1334   -1.3520 H       1  UNL1        0.0660
     57 H           8.9688    3.9515    0.2885 H       1  UNL1        0.0660
     58 H           7.0170    2.6287   -0.8266 H       1  UNL1        0.0658
     59 H           4.9078    2.2273   -1.7694 H       1  UNL1        0.0328
     60 H           3.8680    2.0147   -0.2627 H       1  UNL1        0.0328
     61 H           4.7839   -0.2337   -2.0600 H       1  UNL1        0.0468
     62 H           3.1823    0.5058   -2.3127 H       1  UNL1        0.0468
     63 H           1.2887    0.1791   -1.9466 H       1  UNL1        0.1502
     64 H          -0.6102   -0.3453    0.1483 H       1  UNL1        0.0466
     65 H          -0.4083   -1.8624   -0.8031 H       1  UNL1        0.0466
     66 H          -0.9461   -0.7736   -2.8366 H       1  UNL1        0.0328
     67 H          -1.0779    0.8590   -2.1380 H       1  UNL1        0.0328
     68 H          -2.5860   -2.2379   -2.9384 H       1  UNL1        0.0658
     69 H          -4.7844   -4.9195   -3.9226 H       1  UNL1        0.0660
     70 H          -4.1170   -3.3841   -4.5369 H       1  UNL1        0.0660
     71 H          -3.2466   -4.2171   -3.2325 H       1  UNL1        0.0660
     72 H          -7.4109   -1.3950    0.8454 H       1  UNL1        0.0660
     73 H          -8.5455   -1.3916   -0.6135 H       1  UNL1        0.0660
     74 H          -7.3969   -0.0262   -0.3126 H       1  UNL1        0.0660
     75 H          -5.3590    0.3567    0.0417 H       1  UNL1        0.0659
     76 H          -1.8442    1.5305   -0.4338 H       1  UNL1        0.0590
     77 H          -4.7285    2.4211   -0.6510 H       1  UNL1        0.0284
     78 H          -3.2522    3.4895   -0.3639 H       1  UNL1        0.0284
     79 H          -4.2300    3.1527   -2.8075 H       1  UNL1        0.0230
     80 H          -2.4896    3.2504   -2.4754 H       1  UNL1        0.0230
     81 H          -3.3256    1.6282   -2.7530 H       1  UNL1        0.0230
     82 H          -5.1276    3.3170    1.8519 H       1  UNL1        0.0637
     83 H          -7.3947    3.1105    2.8478 H       1  UNL1        0.0621
     84 H          -8.7298    1.7221    4.7947 H       1  UNL1        0.0278
     85 H          -8.7280   -0.0604    4.3094 H       1  UNL1        0.0278
     86 H          -9.2936    1.1586    3.1374 H       1  UNL1        0.0278
     87 H          -6.6754   -0.9311    3.7942 H       1  UNL1        0.0621
     88 H          -4.4229   -0.7592    2.8141 H       1  UNL1        0.0637
@<TRIPOS>BOND
     1     1     2    1
     2     2     3    1
     3     3     4    1
     4     4     5   ar
     5     5     6   ar
     6     6     7    1
     7     7     8    1
     8     6     9   ar
     9     9    10    1
    10    10    11    1
    11     9    12   ar
    12    12    13   ar
    13    13    14    1
    14    14    15    1
    15    15    16    1
    16    16    17   am
    17    17    18    2
    18    17    19   am
    19    19    20    1
    20    20    21    1
    21    21    22    1
    22    22    23   ar
    23    23    24   ar
    24    24    25    1
    25    25    26    1
    26    24    27   ar
    27    27    28    1
    28    28    29    1
    29    27    30   ar
    30    30    31   ar
    31    31    32    1
    32    32    33    1
    33    33    34    1
    34    32    35    1
    35    35    36    2
    36    35    37    2
    37    35    38    1
    38    38    39   ar
    39    39    40   ar
    40    40    41   ar
    41    41    42    1
    42    41    43   ar
    43    43    44   ar
    44    16     3    1
    45    31    22   ar
    46    44    38   ar
    47    13     4   ar
    48     1    45    1
    49     1    46    1
    50     1    47    1
    51     2    48    1
    52     2    49    1
    53     3    50    1
    54     5    51    1
    55     8    52    1
    56     8    53    1
    57     8    54    1
    58    11    55    1
    59    11    56    1
    60    11    57    1
    61    12    58    1
    62    14    59    1
    63    14    60    1
    64    15    61    1
    65    15    62    1
    66    19    63    1
    67    20    64    1
    68    20    65    1
    69    21    66    1
    70    21    67    1
    71    23    68    1
    72    26    69    1
    73    26    70    1
    74    26    71    1
    75    29    72    1
    76    29    73    1
    77    29    74    1
    78    30    75    1
    79    32    76    1
    80    33    77    1
    81    33    78    1
    82    34    79    1
    83    34    80    1
    84    34    81    1
    85    39    82    1
    86    40    83    1
    87    42    84    1
    88    42    85    1
    89    42    86    1
    90    43    87    1
    91    44    88    1
@<TRIPOS>MOLECULE
51324126
 82 87 0 0 0
SMALL
GASTEIGER

@<TRIPOS>ATOM
      1 C          -6.4508    3.8242    3.0955 C.3     1  UNL1        0.0790
      2 O          -6.2882    3.5358    1.7410 O.3     1  UNL1       -0.4914
      3 C          -5.3273    2.6551    1.2658 C.ar    1  UNL1        0.1618
      4 C          -4.4402    1.9728    2.0384 C.ar    1  UNL1       -0.0127
      5 C          -3.4806    1.0916    1.5294 C.ar    1  UNL1       -0.0369
      6 C          -3.4458    0.9203    0.1926 C.ar    1  UNL1       -0.0157
      7 C          -4.3272    1.5871   -0.6699 C.ar    1  UNL1       -0.0108
      8 C          -5.2496    2.4399   -0.1240 C.ar    1  UNL1        0.1618
      9 O          -6.1642    3.1418   -0.9209 O.3     1  UNL1       -0.4914
     10 C          -6.1091    2.9427   -2.3114 C.3     1  UNL1        0.0790
     11 C          -2.4702    0.0258   -0.4986 C.3     1  UNL1        0.0783
     12 C          -3.2041   -1.1417   -0.9480 C.ar    1  UNL1       -0.0221
     13 C          -3.7408   -2.0726   -0.0969 C.ar    1  UNL1       -0.0501
     14 C          -4.4328   -3.2058   -0.5589 C.ar    1  UNL1        0.0159
     15 C          -4.5918   -3.4113   -1.9161 C.ar    1  UNL1        0.2732
     16 N          -5.2854   -4.5487   -2.3981 N.pl3   1  UNL1        0.0796
     17 O          -5.7774   -5.4207   -1.6612 O.2     1  UNL1        0.0414
     18 O          -5.4196   -4.6963   -3.7530 O.co2   1  UNL1       -0.5760
     19 C          -4.0547   -2.4788   -2.7754 C.ar    1  UNL1        0.0159
     20 C          -3.3764   -1.3688   -2.3223 C.ar    1  UNL1       -0.0501
     21 N          -1.3233   -0.2304    0.3610 N.am    1  UNL1       -0.2741
     22 C          -0.0593   -0.1788   -0.2357 C.2     1  UNL1        0.3063
     23 O          -0.1322    0.3155   -1.4741 O.2     1  UNL1       -0.2524
     24 N           1.2226   -0.5318    0.2005 N.am    1  UNL1       -0.2741
     25 C           1.4958   -1.2598    1.3839 C.3     1  UNL1        0.0210
     26 C           2.6158   -2.2704    1.2076 C.3     1  UNL1       -0.0113
     27 C           3.6468   -1.9047    0.2455 C.ar    1  UNL1       -0.0369
     28 C           4.8282   -2.6722    0.2106 C.ar    1  UNL1       -0.0127
     29 C           5.8459   -2.4101   -0.6645 C.ar    1  UNL1        0.1618
     30 O           7.0125   -3.1675   -0.6983 O.3     1  UNL1       -0.4914
     31 C           7.1969   -4.2709    0.1936 C.3     1  UNL1        0.0790
     32 C           5.6893   -1.3386   -1.5475 C.ar    1  UNL1        0.1618
     33 O           6.6315   -1.0340   -2.4135 O.3     1  UNL1       -0.4914
     34 C           7.4727   -0.6517   -3.2852 C.3     1  UNL1        0.0790
     35 C           4.5109   -0.5663   -1.5186 C.ar    1  UNL1       -0.0108
     36 C           3.5152   -0.8727   -0.6171 C.ar    1  UNL1       -0.0157
     37 C           2.3180   -0.0256   -0.6434 C.3     1  UNL1        0.0783
     38 C           2.7182    1.2598    0.0418 C.ar    1  UNL1       -0.0221
     39 C           3.5583    1.1741    1.1155 C.ar    1  UNL1       -0.0501
     40 C           3.9591    2.3005    1.8237 C.ar    1  UNL1        0.0159
     41 C           3.4998    3.5369    1.4361 C.ar    1  UNL1        0.2732
     42 N           3.8917    4.7143    2.1517 N.pl3   1  UNL1        0.0796
     43 O           4.6597    4.6395    3.1304 O.2     1  UNL1        0.0414
     44 O           3.4381    5.9534    1.7876 O.co2   1  UNL1       -0.5760
     45 C           2.6601    3.5949    0.3575 C.ar    1  UNL1        0.0159
     46 C           2.2527    2.4796   -0.3571 C.ar    1  UNL1       -0.0501
     47 C          -1.5162   -0.4119    1.7637 C.3     1  UNL1        0.0210
     48 C          -2.5637    0.3934    2.4320 C.3     1  UNL1       -0.0113
     49 H          -6.3620    4.9388    3.2900 H       1  UNL1        0.0660
     50 H          -5.8213    3.2760    3.7864 H       1  UNL1        0.0660
     51 H          -7.5166    3.6149    3.4368 H       1  UNL1        0.0660
     52 H          -4.4292    2.0776    3.1028 H       1  UNL1        0.0658
     53 H          -4.2753    1.4251   -1.7601 H       1  UNL1        0.0659
     54 H          -5.1550    3.3761   -2.6748 H       1  UNL1        0.0660
     55 H          -6.1051    1.8520   -2.5541 H       1  UNL1        0.0660
     56 H          -6.9681    3.4068   -2.8390 H       1  UNL1        0.0660
     57 H          -2.1436    0.6053   -1.4128 H       1  UNL1        0.0601
     58 H          -3.6219   -1.9037    0.9575 H       1  UNL1        0.0623
     59 H          -4.8298   -3.8944    0.1721 H       1  UNL1        0.0685
     60 H          -4.1978   -2.6743   -3.8371 H       1  UNL1        0.0685
     61 H          -2.9639   -0.6518   -3.0200 H       1  UNL1        0.0623
     62 H           1.6889   -0.6787    2.2956 H       1  UNL1        0.0468
     63 H           0.6002   -1.9197    1.6006 H       1  UNL1        0.0468
     64 H           2.2168   -3.2761    0.8721 H       1  UNL1        0.0328
     65 H           3.0575   -2.4850    2.2176 H       1  UNL1        0.0328
     66 H           4.9444   -3.5085    0.9033 H       1  UNL1        0.0658
     67 H           8.1423   -4.7810    0.0223 H       1  UNL1        0.0660
     68 H           7.1891   -3.8956    1.2405 H       1  UNL1        0.0660
     69 H           6.3711   -5.0068    0.0857 H       1  UNL1        0.0660
     70 H           7.6991   -1.4417   -4.0920 H       1  UNL1        0.0660
     71 H           7.1354    0.2544   -3.8994 H       1  UNL1        0.0660
     72 H           8.5038   -0.3007   -2.9427 H       1  UNL1        0.0660
     73 H           4.4205    0.2567   -2.2150 H       1  UNL1        0.0659
     74 H           1.9267    0.1321   -1.6465 H       1  UNL1        0.0601
     75 H           3.9642    0.2415    1.4793 H       1  UNL1        0.0623
     76 H           4.6335    2.2246    2.6848 H       1  UNL1        0.0685
     77 H           2.2822    4.5551    0.0316 H       1  UNL1        0.0685
     78 H           1.5946    2.5187   -1.2046 H       1  UNL1        0.0623
     79 H          -0.5512   -0.1203    2.3277 H       1  UNL1        0.0468
     80 H          -1.6294   -1.4756    2.0798 H       1  UNL1        0.0468
     81 H          -2.0727    1.1788    3.0838 H       1  UNL1        0.0328
     82 H          -3.1367   -0.2777    3.1294 H       1  UNL1        0.0328
@<TRIPOS>UNITY_ATOM_ATTR
16 1
charge 1
18 1
charge -1
42 1
charge 1
44 1
charge -1
@<TRIPOS>BOND
     1     1     2    1
     2     2     3    1
     3     3     4   ar
     4     4     5   ar
     5     5     6   ar
     6     6     7   ar
     7     7     8   ar
     8     8     9    1
     9     9    10    1
    10     6    11    1
    11    11    12    1
    12    12    13   ar
    13    13    14   ar
    14    14    15   ar
    15    15    16    1
    16    16    17    2
    17    16    18    1
    18    15    19   ar
    19    19    20   ar
    20    11    21    1
    21    21    22   am
    22    22    23    2
    23    22    24   am
    24    24    25    1
    25    25    26    1
    26    26    27    1
    27    27    28   ar
    28    28    29   ar
    29    29    30    1
    30    30    31    1
    31    29    32   ar
    32    32    33    1
    33    33    34    1
    34    32    35   ar
    35    35    36   ar
    36    36    37    1
    37    37    38    1
    38    38    39   ar
    39    39    40   ar
    40    40    41   ar
    41    41    42    1
    42    42    43    2
    43    42    44    1
    44    41    45   ar
    45    45    46   ar
    46    21    47    1
    47    47    48    1
    48     8     3   ar
    49    20    12   ar
    50    37    24    1
    51    46    38   ar
    52    48     5    1
    53    36    27   ar
    54     1    49    1
    55     1    50    1
    56     1    51    1
    57     4    52    1
    58     7    53    1
    59    10    54    1
    60    10    55    1
    61    10    56    1
    62    11    57    1
    63    13    58    1
    64    14    59    1
    65    19    60    1
    66    20    61    1
    67    25    62    1
    68    25    63    1
    69    26    64    1
    70    26    65    1
    71    28    66    1
    72    31    67    1
    73    31    68    1
    74    31    69    1
    75    34    70    1
    76    34    71    1
    77    34    72    1
    78    35    73    1
    79    37    74    1
    80    39    75    1
    81    40    76    1
    82    45    77    1
    83    46    78    1
    84    47    79    1
    85    47    80    1
    86    48    81    1
    87    48    82    1
@<TRIPOS>MOLECULE
50487934
 31 31 0 0 0
SMALL
GASTEIGER

@<TRIPOS>ATOM
      1 C           2.6780   -1.3343   -0.5166 C.3     1  UNL1       -0.0623
      2 C           2.0094    0.0178   -0.3838 C.3     1  UNL1       -0.0415
      3 C           2.8340    0.9284    0.4629 C.3     1  UNL1       -0.0623
      4 C           0.6047   -0.1812    0.1374 C.3     1  UNL1       -0.0126
      5 C          -0.1268   -1.0452   -0.8594 C.3     1  UNL1       -0.0474
      6 C          -1.5714   -1.1336   -0.4830 C.3     1  UNL1       -0.0500
      7 C          -2.2555    0.1948   -0.4369 C.3     1  UNL1       -0.0415
      8 C          -3.2849    0.1505    0.6741 C.3     1  UNL1       -0.0623
      9 C          -1.3263    1.3582   -0.3275 C.3     1  UNL1       -0.0240
     10 C          -0.0897    1.0949    0.4573 C.3     1  UNL1        0.0585
     11 O          -0.3715    1.2276    1.8333 O.3     1  UNL1       -0.3915
     12 H           2.2891   -1.9980    0.2971 H       1  UNL1        0.0232
     13 H           2.4251   -1.8034   -1.4807 H       1  UNL1        0.0232
     14 H           3.7905   -1.2579   -0.4521 H       1  UNL1        0.0232
     15 H           1.9741    0.4509   -1.4218 H       1  UNL1        0.0299
     16 H           3.9067    0.5871    0.3709 H       1  UNL1        0.0232
     17 H           2.8313    1.9637    0.0641 H       1  UNL1        0.0232
     18 H           2.5800    0.8613    1.5204 H       1  UNL1        0.0232
     19 H           0.7154   -0.7685    1.0956 H       1  UNL1        0.0328
     20 H           0.0236   -0.6505   -1.8844 H       1  UNL1        0.0269
     21 H           0.3036   -2.0718   -0.7616 H       1  UNL1        0.0269
     22 H          -1.6429   -1.6437    0.4972 H       1  UNL1        0.0268
     23 H          -2.0698   -1.7992   -1.2469 H       1  UNL1        0.0268
     24 H          -2.8284    0.3250   -1.4012 H       1  UNL1        0.0299
     25 H          -3.3181   -0.8544    1.1681 H       1  UNL1        0.0232
     26 H          -3.0838    0.8800    1.4736 H       1  UNL1        0.0232
     27 H          -4.3104    0.3455    0.2980 H       1  UNL1        0.0232
     28 H          -1.0194    1.7019   -1.3454 H       1  UNL1        0.0293
     29 H          -1.8784    2.1888    0.1638 H       1  UNL1        0.0293
     30 H           0.6259    1.9414    0.2398 H       1  UNL1        0.0596
     31 H          -0.4140    0.3240    2.2487 H       1  UNL1        0.2098
@<TRIPOS>BOND
     1     1     2    1
     2     2     3    1
     3     2     4    1
     4     4     5    1
     5     5     6    1
     6     6     7    1
     7     7     8    1
     8     7     9    1
     9     9    10    1
    10    10    11    1
    11    10     4    1
    12     1    12    1
    13     1    13    1
    14     1    14    1
    15     2    15    1
    16     3    16    1
    17     3    17    1
    18     3    18    1
    19     4    19    1
    20     5    20    1
    21     5    21    1
    22     6    22    1
    23     6    23    1
    24     7    24    1
    25     8    25    1
    26     8    26    1
    27     8    27    1
    28     9    28    1
    29     9    29    1
    30    10    30    1
    31    11    31    1
@<TRIPOS>MOLECULE
CHEMBL25719
 29 28 0 0 0
SMALL
GASTEIGER

@<TRIPOS>ATOM
      1 C           4.2009   -1.0653   -0.6132 C.3     1  UNL1       -0.0440
      2 C           2.8226   -0.4954   -0.3002 C.2     1  UNL1       -0.0796
      3 C           2.8129    0.8513    0.2756 C.3     1  UNL1       -0.0440
      4 C           1.7912   -1.2168   -0.5756 C.2     1  UNL1       -0.0850
      5 C           0.3577   -1.0521   -0.4382 C.3     1  UNL1       -0.0308
      6 C          -0.0905    0.1707    0.2482 C.3     1  UNL1       -0.0285
      7 C          -1.6116    0.2472    0.3059 C.2     1  UNL1       -0.0741
      8 C          -2.4330   -0.7688    0.9699 C.3     1  UNL1       -0.0437
      9 C          -2.1596    1.2866   -0.2788 C.2     1  UNL1       -0.0600
     10 C          -3.6164    1.5051   -0.3105 C.3     1  UNL1        0.0626
     11 O          -4.3778    0.5576    0.3083 O.3     1  UNL1       -0.3910
     12 H           4.5158   -1.6417    0.2663 H       1  UNL1        0.0274
     13 H           4.9237   -0.2555   -0.8010 H       1  UNL1        0.0274
     14 H           4.1325   -1.7100   -1.5369 H       1  UNL1        0.0274
     15 H           2.2599    0.9916    1.2051 H       1  UNL1        0.0274
     16 H           3.8875    1.1805    0.5187 H       1  UNL1        0.0274
     17 H           2.5348    1.5897   -0.5319 H       1  UNL1        0.0274
     18 H           2.0747   -2.2343   -1.0414 H       1  UNL1        0.0572
     19 H          -0.0465   -1.9317    0.1401 H       1  UNL1        0.0310
     20 H          -0.1277   -1.0783   -1.4485 H       1  UNL1        0.0310
     21 H           0.2956    1.1192   -0.1469 H       1  UNL1        0.0313
     22 H           0.1741    0.1059    1.3482 H       1  UNL1        0.0313
     23 H          -3.0901   -1.3597    0.2967 H       1  UNL1        0.0274
     24 H          -1.7370   -1.5568    1.4016 H       1  UNL1        0.0274
     25 H          -2.9813   -0.4050    1.8764 H       1  UNL1        0.0274
     26 H          -1.5376    2.0599   -0.7839 H       1  UNL1        0.0594
     27 H          -3.8241    2.4811    0.2227 H       1  UNL1        0.0601
     28 H          -3.9809    1.7150   -1.3592 H       1  UNL1        0.0601
     29 H          -5.1697    0.9099    0.7814 H       1  UNL1        0.2098
@<TRIPOS>BOND
     1     1     2    1
     2     2     3    1
     3     2     4    2
     4     4     5    1
     5     5     6    1
     6     6     7    1
     7     7     8    1
     8     7     9    2
     9     9    10    1
    10    10    11    1
    11     1    12    1
    12     1    13    1
    13     1    14    1
    14     3    15    1
    15     3    16    1
    16     3    17    1
    17     4    18    1
    18     5    19    1
    19     5    20    1
    20     6    21    1
    21     6    22    1
    22     8    23    1
    23     8    24    1
    24     8    25    1
    25     9    26    1
    26    10    27    1
    27    10    28    1
    28    11    29    1
@<TRIPOS>MOLECULE
51028031
 26 26 0 0 0
SMALL
GASTEIGER

@<TRIPOS>ATOM
      1 C          -3.8449    0.1611    0.1120 C.3     1  UNL1       -0.0397
      2 C          -2.3628    0.1364    0.0383 C.ar    1  UNL1       -0.0487
      3 C          -1.6290    1.2835    0.2826 C.ar    1  UNL1       -0.0585
      4 C          -0.2371    1.2096    0.2011 C.ar    1  UNL1       -0.0563
      5 C           0.4140    0.0315   -0.1139 C.ar    1  UNL1       -0.0242
      6 C           1.8715    0.0034   -0.1872 C.3     1  UNL1       -0.0198
      7 C           2.5525   -0.3286    1.1030 C.3     1  UNL1       -0.0586
      8 C           2.4294    1.3415   -0.6685 C.3     1  UNL1       -0.0586
      9 C          -0.3383   -1.1015   -0.3539 C.ar    1  UNL1        0.0283
     10 N           0.3270   -2.2865   -0.6712 N.pl3   1  UNL1       -0.3577
     11 C          -1.7235   -1.0437   -0.2766 C.ar    1  UNL1       -0.0379
     12 H          -4.2028    0.9158   -0.6025 H       1  UNL1        0.0278
     13 H          -4.2536   -0.8393   -0.0303 H       1  UNL1        0.0278
     14 H          -4.1002    0.5482    1.1359 H       1  UNL1        0.0278
     15 H          -2.1209    2.2192    0.5316 H       1  UNL1        0.0620
     16 H           0.3235    2.1196    0.3959 H       1  UNL1        0.0621
     17 H           2.1490   -0.7671   -0.9637 H       1  UNL1        0.0344
     18 H           1.9031   -0.1658    1.9916 H       1  UNL1        0.0235
     19 H           2.9397   -1.3805    1.0755 H       1  UNL1        0.0235
     20 H           3.4540    0.3059    1.2713 H       1  UNL1        0.0235
     21 H           3.4943    1.2218   -0.9780 H       1  UNL1        0.0235
     22 H           1.7902    1.7533   -1.4592 H       1  UNL1        0.0235
     23 H           2.3537    2.0493    0.2074 H       1  UNL1        0.0235
     24 H           0.5255   -2.5337   -1.6567 H       1  UNL1        0.1423
     25 H           0.6318   -2.9356    0.0753 H       1  UNL1        0.1423
     26 H          -2.3459   -1.9178   -0.4598 H       1  UNL1        0.0639
@<TRIPOS>BOND
     1     1     2    1
     2     2     3   ar
     3     3     4   ar
     4     4     5   ar
     5     5     6    1
     6     6     7    1
     7     6     8    1
     8     5     9   ar
     9     9    10    1
    10     9    11   ar
    11    11     2   ar
    12     1    12    1
    13     1    13    1
    14     1    14    1
    15     3    15    1
    16     4    16    1
    17     6    17    1
    18     7    18    1
    19     7    19    1
    20     7    20    1
    21     8    21    1
    22     8    22    1
    23     8    23    1
    24    10    24    1
    25    10    25    1
    26    11    26    1
@<TRIPOS>MOLECULE
51028032
 25 25 0 0 0
SMALL
GASTEIGER

@<TRIPOS>ATOM
      1 C          -3.8142   -0.0478   -0.2402 C.3     1  UNL1       -0.0396
      2 C          -2.3297   -0.0681   -0.1941 C.ar    1  UNL1       -0.0470
      3 C          -1.6291    1.0323    0.2550 C.ar    1  UNL1       -0.0583
      4 C          -0.2500    1.0656    0.3179 C.ar    1  UNL1       -0.0546
      5 C           0.4838   -0.0449   -0.0830 C.ar    1  UNL1       -0.0034
      6 C           1.9422   -0.0267   -0.0230 C.3     1  UNL1       -0.0181
      7 C           2.5149   -0.5097    1.2773 C.3     1  UNL1       -0.0585
      8 C           2.4715    1.3950   -0.2405 C.3     1  UNL1       -0.0585
      9 C          -0.2232   -1.1458   -0.5325 C.ar    1  UNL1        0.1205
     10 O           0.5495   -2.2444   -0.9273 O.3     1  UNL1       -0.5065
     11 C          -1.6012   -1.1706   -0.5921 C.ar    1  UNL1       -0.0170
     12 H          -4.1062    0.3418   -1.2367 H       1  UNL1        0.0278
     13 H          -4.2438    0.6469    0.5106 H       1  UNL1        0.0278
     14 H          -4.1640   -1.0806   -0.0518 H       1  UNL1        0.0278
     15 H          -2.2245    1.9009    0.5677 H       1  UNL1        0.0620
     16 H           0.2752    1.9610    0.6817 H       1  UNL1        0.0622
     17 H           2.3814   -0.6437   -0.8309 H       1  UNL1        0.0345
     18 H           1.8895   -0.1011    2.0960 H       1  UNL1        0.0235
     19 H           3.5188   -0.0545    1.3967 H       1  UNL1        0.0235
     20 H           2.6517   -1.5989    1.3285 H       1  UNL1        0.0235
     21 H           2.0076    1.8657   -1.1252 H       1  UNL1        0.0235
     22 H           2.3142    2.0222    0.6672 H       1  UNL1        0.0235
     23 H           3.5643    1.3874   -0.4165 H       1  UNL1        0.0235
     24 H           0.1255   -2.8233   -1.6527 H       1  UNL1        0.2921
     25 H          -2.1040   -2.0588   -0.9522 H       1  UNL1        0.0657
@<TRIPOS>BOND
     1     1     2    1
     2     2     3   ar
     3     3     4   ar
     4     4     5   ar
     5     5     6    1
     6     6     7    1
     7     6     8    1
     8     5     9   ar
     9     9    10    1
    10     9    11   ar
    11    11     2   ar
    12     1    12    1
    13     1    13    1
    14     1    14    1
    15     3    15    1
    16     4    16    1
    17     6    17    1
    18     7    18    1
    19     7    19    1
    20     7    20    1
    21     8    21    1
    22     8    22    1
    23     8    23    1
    24    10    24    1
    25    11    25    1
@<TRIPOS>MOLECULE
CHEMBL5286794
 40 40 0 0 0
SMALL
GASTEIGER

@<TRIPOS>ATOM
      1 C          -0.9433   -1.7709   -1.6709 C.3     1  UNL1       -0.0623
      2 C          -1.1599   -1.6962   -0.1951 C.3     1  UNL1       -0.0405
      3 C          -2.3203   -2.5791    0.1498 C.3     1  UNL1       -0.0623
      4 C          -1.2335   -0.3182    0.3633 C.3     1  UNL1       -0.0015
      5 C          -2.3299    0.5227   -0.1918 C.3     1  UNL1       -0.0464
      6 C          -2.2450    1.9638    0.1127 C.3     1  UNL1       -0.0500
      7 C          -0.9079    2.5420    0.3245 C.3     1  UNL1       -0.0405
      8 C          -1.0473    3.8664    1.0662 C.3     1  UNL1       -0.0623
      9 C           0.0658    1.6223    1.0406 C.3     1  UNL1       -0.0128
     10 C           0.1047    0.3627    0.1641 C.3     1  UNL1        0.1064
     11 O           1.1858   -0.4532    0.4671 O.3     1  UNL1       -0.4593
     12 C           2.1807   -0.6891   -0.4605 C.2     1  UNL1        0.3360
     13 O           2.0699   -0.1431   -1.5752 O.2     1  UNL1       -0.2479
     14 C           3.3618   -1.5678   -0.1590 C.3     1  UNL1        0.1488
     15 C           4.6342   -0.7448   -0.3444 C.3     1  UNL1       -0.0285
     16 O           3.2604   -2.0562    1.1368 O.3     1  UNL1       -0.3809
     17 H          -0.5443   -0.8777   -2.1364 H       1  UNL1        0.0232
     18 H          -1.9054   -2.0169   -2.1983 H       1  UNL1        0.0232
     19 H          -0.2539   -2.6200   -1.9550 H       1  UNL1        0.0232
     20 H          -0.2495   -2.1815    0.2716 H       1  UNL1        0.0299
     21 H          -2.0355   -3.4730    0.7478 H       1  UNL1        0.0232
     22 H          -3.1227   -2.0758    0.7108 H       1  UNL1        0.0232
     23 H          -2.8229   -3.0039   -0.7690 H       1  UNL1        0.0232
     24 H          -1.3884   -0.4038    1.4595 H       1  UNL1        0.0339
     25 H          -3.3294    0.1810    0.1730 H       1  UNL1        0.0269
     26 H          -2.3378    0.3590   -1.3086 H       1  UNL1        0.0269
     27 H          -2.7345    2.5241   -0.7386 H       1  UNL1        0.0268
     28 H          -2.8867    2.2371    1.0022 H       1  UNL1        0.0268
     29 H          -0.4474    2.7745   -0.6719 H       1  UNL1        0.0299
     30 H          -0.6801    3.7220    2.1017 H       1  UNL1        0.0232
     31 H          -0.5044    4.6684    0.5568 H       1  UNL1        0.0232
     32 H          -2.1160    4.1606    1.1187 H       1  UNL1        0.0232
     33 H          -0.3310    1.3796    2.0456 H       1  UNL1        0.0303
     34 H           1.0458    2.1236    1.0656 H       1  UNL1        0.0303
     35 H           0.2082    0.7398   -0.8740 H       1  UNL1        0.0737
     36 H           3.4225   -2.4151   -0.8641 H       1  UNL1        0.0707
     37 H           4.4327    0.3225   -0.0688 H       1  UNL1        0.0260
     38 H           5.3982   -1.1806    0.3333 H       1  UNL1        0.0260
     39 H           4.9927   -0.8001   -1.3946 H       1  UNL1        0.0260
     40 H           3.5134   -3.0051    1.1629 H       1  UNL1        0.2105
@<TRIPOS>BOND
     1     1     2    1
     2     2     3    1
     3     2     4    1
     4     4     5    1
     5     5     6    1
     6     6     7    1
     7     7     8    1
     8     7     9    1
     9     9    10    1
    10    10    11    1
    11    11    12    1
    12    12    13    2
    13    12    14    1
    14    14    15    1
    15    14    16    1
    16    10     4    1
    17     1    17    1
    18     1    18    1
    19     1    19    1
    20     2    20    1
    21     3    21    1
    22     3    22    1
    23     3    23    1
    24     4    24    1
    25     5    25    1
    26     5    26    1
    27     6    27    1
    28     6    28    1
    29     7    29    1
    30     8    30    1
    31     8    31    1
    32     8    32    1
    33     9    33    1
    34     9    34    1
    35    10    35    1
    36    14    36    1
    37    15    37    1
    38    15    38    1
    39    15    39    1
    40    16    40    1
@<TRIPOS>MOLECULE
CHEMBL42710
 24 24 0 0 0
SMALL
GASTEIGER

@<TRIPOS>ATOM
      1 C          -3.9818    0.5878   -0.0810 C.2     1  UNL1       -0.1023
      2 C          -2.7052    0.9401    0.0006 C.2     1  UNL1       -0.0868
      3 C          -1.7005    0.6922   -1.0333 C.3     1  UNL1       -0.0096
      4 C          -0.5676   -0.1369   -0.5927 C.ar    1  UNL1       -0.0400
      5 C          -0.6202   -1.5102   -0.7202 C.ar    1  UNL1       -0.0546
      6 C           0.4641   -2.2483   -0.2943 C.ar    1  UNL1       -0.0163
      7 C           1.5964   -1.6446    0.2546 C.ar    1  UNL1        0.1585
      8 O           2.6812   -2.4058    0.6790 O.3     1  UNL1       -0.5033
      9 C           1.6523   -0.2717    0.3836 C.ar    1  UNL1        0.1615
     10 O           2.7795    0.2885    0.9269 O.3     1  UNL1       -0.4915
     11 C           2.9730    1.6686    1.1176 C.3     1  UNL1        0.0790
     12 C           0.5639    0.4570   -0.0449 C.ar    1  UNL1       -0.0128
     13 H          -4.3701    0.0745   -0.9553 H       1  UNL1        0.0532
     14 H          -4.6927    0.7915    0.7097 H       1  UNL1        0.0532
     15 H          -2.3910    1.4504    0.9067 H       1  UNL1        0.0570
     16 H          -2.2079    0.2720   -1.9229 H       1  UNL1        0.0355
     17 H          -1.3000    1.6919   -1.3730 H       1  UNL1        0.0355
     18 H          -1.4880   -2.0155   -1.1441 H       1  UNL1        0.0622
     19 H           0.4505   -3.3289   -0.3823 H       1  UNL1        0.0655
     20 H           3.1045   -3.0220   -0.0265 H       1  UNL1        0.2923
     21 H           2.5077    2.2820    0.3297 H       1  UNL1        0.0660
     22 H           2.6107    1.9550    2.1293 H       1  UNL1        0.0660
     23 H           4.0606    1.8861    1.0885 H       1  UNL1        0.0660
     24 H           0.5805    1.5464    0.0451 H       1  UNL1        0.0658
@<TRIPOS>BOND
     1     1     2    2
     2     2     3    1
     3     3     4    1
     4     4     5   ar
     5     5     6   ar
     6     6     7   ar
     7     7     8    1
     8     7     9   ar
     9     9    10    1
    10    10    11    1
    11     9    12   ar
    12    12     4   ar
    13     1    13    1
    14     1    14    1
    15     2    15    1
    16     3    16    1
    17     3    17    1
    18     5    18    1
    19     6    19    1
    20     8    20    1
    21    11    21    1
    22    11    22    1
    23    11    23    1
    24    12    24    1
@<TRIPOS>MOLECULE
CHEMBL4074235
 43 45 0 0 0
SMALL
GASTEIGER

@<TRIPOS>ATOM
      1 C           7.3181    0.6271   -0.6563 C.3     1  UNL1       -0.0397
      2 C           5.9027    0.2360   -0.5550 C.ar    1  UNL1       -0.0502
      3 C           5.5432   -1.0023   -0.0970 C.ar    1  UNL1       -0.0554
      4 C           4.2078   -1.3621   -0.0048 C.ar    1  UNL1       -0.0197
      5 C           3.1943   -0.4897   -0.3697 C.ar    1  UNL1        0.1212
      6 O           1.9069   -0.9236   -0.2478 O.3     1  UNL1       -0.4828
      7 C           0.7674   -0.1518   -0.5787 C.3     1  UNL1        0.1657
      8 C          -0.4876   -0.9050   -0.3346 C.2     1  UNL1        0.2578
      9 O          -0.3393   -2.0714    0.1322 O.2     1  UNL1       -0.2715
     10 N          -1.7861   -0.4159   -0.5851 N.am    1  UNL1       -0.2610
     11 C          -2.0984    0.8894   -1.0606 C.3     1  UNL1        0.0512
     12 C          -2.3359    1.8953   -0.0443 C.ar    1  UNL1        0.0075
     13 C          -3.4471    2.3022    0.6471 C.ar    1  UNL1       -0.0500
     14 C          -3.3512    3.2863    1.5329 C.ar    1  UNL1       -0.0544
     15 C          -2.1839    3.9210    1.7918 C.ar    1  UNL1       -0.0240
     16 S          -1.0850    2.9783    0.6068 S.2     1  UNL1       -0.1000
     17 C          -2.8915   -1.2941   -0.3284 C.ar    1  UNL1        0.0743
     18 C          -3.4704   -2.1787   -1.2226 C.ar    1  UNL1        0.0708
     19 N          -4.4842   -2.8332   -0.6212 N.ar    1  UNL1       -0.1780
     20 N          -4.5606   -2.3840    0.6316 N.ar    1  UNL1       -0.2727
     21 C          -5.5386   -2.8602    1.5873 C.3     1  UNL1        0.0302
     22 C          -3.6040   -1.4465    0.8392 C.ar    1  UNL1        0.0466
     23 C           3.5696    0.7479   -0.8270 C.ar    1  UNL1       -0.0197
     24 C           4.8962    1.1181   -0.9233 C.ar    1  UNL1       -0.0554
     25 H           7.4938    1.6879   -0.3830 H       1  UNL1        0.0278
     26 H           7.6960    0.5168   -1.7111 H       1  UNL1        0.0278
     27 H           7.9538    0.0124    0.0410 H       1  UNL1        0.0278
     28 H           6.3189   -1.7173    0.2003 H       1  UNL1        0.0621
     29 H           3.9796   -2.3453    0.3608 H       1  UNL1        0.0654
     30 H           0.7948    0.8428   -0.1404 H       1  UNL1        0.0795
     31 H           0.8264   -0.0022   -1.6933 H       1  UNL1        0.0795
     32 H          -1.2693    1.1815   -1.7545 H       1  UNL1        0.0523
     33 H          -2.9800    0.7698   -1.7676 H       1  UNL1        0.0523
     34 H          -4.4124    1.7581    0.4153 H       1  UNL1        0.0626
     35 H          -4.2625    3.6385    2.1171 H       1  UNL1        0.0623
     36 H          -1.8363    4.6734    2.3915 H       1  UNL1        0.0693
     37 H          -3.1410   -2.3068   -2.2433 H       1  UNL1        0.0867
     38 H          -6.5056   -2.3455    1.4338 H       1  UNL1        0.0473
     39 H          -5.1330   -2.7276    2.6061 H       1  UNL1        0.0473
     40 H          -5.7085   -3.9555    1.4596 H       1  UNL1        0.0473
     41 H          -3.4100   -0.8955    1.7555 H       1  UNL1        0.0845
     42 H           2.7756    1.4290   -1.1119 H       1  UNL1        0.0654
     43 H           5.1775    2.1025   -1.2876 H       1  UNL1        0.0621
@<TRIPOS>BOND
     1     1     2    1
     2     2     3   ar
     3     3     4   ar
     4     4     5   ar
     5     5     6    1
     6     6     7    1
     7     7     8    1
     8     8     9    2
     9     8    10   am
    10    10    11    1
    11    11    12    1
    12    12    13   ar
    13    13    14   ar
    14    14    15   ar
    15    15    16   ar
    16    10    17    1
    17    17    18   ar
    18    18    19   ar
    19    19    20   ar
    20    20    21    1
    21    20    22   ar
    22     5    23   ar
    23    23    24   ar
    24    24     2   ar
    25    16    12   ar
    26    22    17   ar
    27     1    25    1
    28     1    26    1
    29     1    27    1
    30     3    28    1
    31     4    29    1
    32     7    30    1
    33     7    31    1
    34    11    32    1
    35    11    33    1
    36    13    34    1
    37    14    35    1
    38    15    36    1
    39    18    37    1
    40    21    38    1
    41    21    39    1
    42    21    40    1
    43    22    41    1
    44    23    42    1
    45    24    43    1
@<TRIPOS>MOLECULE
CHEMBL4071883
 39 40 0 0 0
SMALL
GASTEIGER

@<TRIPOS>ATOM
      1 C          -2.2748   -3.6380   -0.4230 C.3     1  UNL1       -0.0493
      2 C          -2.4603   -2.4092    0.4382 C.3     1  UNL1        0.0122
      3 N          -1.5981   -1.3363   -0.0864 N.am    1  UNL1       -0.2968
      4 C          -2.1796   -0.4759   -1.0722 C.3     1  UNL1        0.0459
      5 C          -2.8787    0.7043   -0.5036 C.ar    1  UNL1        0.0071
      6 C          -4.2057    0.7920   -0.1176 C.ar    1  UNL1       -0.0500
      7 C          -4.6353    1.9610    0.3678 C.ar    1  UNL1       -0.0544
      8 C          -3.8179    3.0202    0.4819 C.ar    1  UNL1       -0.0240
      9 S          -2.2529    2.2846   -0.1730 S.2     1  UNL1       -0.1000
     10 C          -0.2737   -1.2165    0.4101 C.2     1  UNL1        0.2186
     11 O           0.1179   -2.0425    1.2997 O.2     1  UNL1       -0.2755
     12 C           0.6729   -0.1795   -0.0570 C.3     1  UNL1        0.0543
     13 C           2.0007   -0.3494    0.6529 C.3     1  UNL1        0.0884
     14 O           1.8238   -0.2235    2.0377 O.3     1  UNL1       -0.3867
     15 C           3.0545    0.5528    0.1548 C.ar    1  UNL1       -0.0187
     16 C           2.9625    1.3415   -0.9656 C.ar    1  UNL1       -0.0561
     17 C           4.0385    2.1571   -1.3334 C.ar    1  UNL1       -0.0614
     18 C           5.2055    2.2023   -0.6058 C.ar    1  UNL1       -0.0617
     19 C           5.2880    1.4130    0.5090 C.ar    1  UNL1       -0.0614
     20 C           4.2289    0.6056    0.8771 C.ar    1  UNL1       -0.0561
     21 H          -1.2718   -3.5612   -0.9103 H       1  UNL1        0.0245
     22 H          -3.0238   -3.6990   -1.2457 H       1  UNL1        0.0245
     23 H          -2.3180   -4.5413    0.2212 H       1  UNL1        0.0245
     24 H          -3.5075   -2.0864    0.5222 H       1  UNL1        0.0462
     25 H          -2.1012   -2.6372    1.4694 H       1  UNL1        0.0462
     26 H          -1.4554   -0.1773   -1.8651 H       1  UNL1        0.0519
     27 H          -2.9628   -1.0548   -1.6197 H       1  UNL1        0.0519
     28 H          -4.8819   -0.1121   -0.2208 H       1  UNL1        0.0626
     29 H          -5.7138    2.0889    0.6993 H       1  UNL1        0.0623
     30 H          -3.9003    4.0136    0.8181 H       1  UNL1        0.0693
     31 H           0.8191   -0.2287   -1.1652 H       1  UNL1        0.0387
     32 H           0.2930    0.8110    0.2406 H       1  UNL1        0.0387
     33 H           2.3307   -1.3971    0.4742 H       1  UNL1        0.0648
     34 H           2.2701   -0.9844    2.5293 H       1  UNL1        0.2102
     35 H           2.0701    1.3201   -1.5386 H       1  UNL1        0.0621
     36 H           3.9738    2.7845   -2.2191 H       1  UNL1        0.0618
     37 H           6.0090    2.8545   -0.9384 H       1  UNL1        0.0618
     38 H           6.2026    1.4294    1.1049 H       1  UNL1        0.0618
     39 H           4.3519    0.0142    1.7540 H       1  UNL1        0.0621
@<TRIPOS>BOND
     1     1     2    1
     2     2     3    1
     3     3     4    1
     4     4     5    1
     5     5     6   ar
     6     6     7   ar
     7     7     8   ar
     8     8     9   ar
     9     3    10   am
    10    10    11    2
    11    10    12    1
    12    12    13    1
    13    13    14    1
    14    13    15    1
    15    15    16   ar
    16    16    17   ar
    17    17    18   ar
    18    18    19   ar
    19    19    20   ar
    20     9     5   ar
    21    20    15   ar
    22     1    21    1
    23     1    22    1
    24     1    23    1
    25     2    24    1
    26     2    25    1
    27     4    26    1
    28     4    27    1
    29     6    28    1
    30     7    29    1
    31     8    30    1
    32    12    31    1
    33    12    32    1
    34    13    33    1
    35    14    34    1
    36    16    35    1
    37    17    36    1
    38    18    37    1
    39    19    38    1
    40    20    39    1
@<TRIPOS>MOLECULE
CHEMBL5281182
 41 44 0 0 0
SMALL
GASTEIGER

@<TRIPOS>ATOM
      1 CL          7.1962   -0.9851   -0.1046 Cl      1  UNL1       -0.0835
      2 C           5.4428   -1.0858   -0.0408 C.ar    1  UNL1        0.0410
      3 C           4.7980   -2.0947    0.6326 C.ar    1  UNL1       -0.0427
      4 C           3.4306   -2.1579    0.6747 C.ar    1  UNL1       -0.0497
      5 C           2.5982   -1.2134    0.0449 C.ar    1  UNL1        0.0197
      6 C           1.1608   -1.3488    0.1396 C.ar    1  UNL1        0.1700
      7 N           0.5660   -2.5500    0.3739 N.ar    1  UNL1       -0.1271
      8 N          -0.7286   -2.3958    0.4179 N.ar    1  UNL1       -0.1124
      9 C          -1.0278   -1.0739    0.2100 C.ar    1  UNL1        0.2246
     10 N          -2.3441   -0.6024    0.2054 N.pl3   1  UNL1       -0.2951
     11 C          -3.2272   -0.8432   -0.9152 C.3     1  UNL1        0.0384
     12 C          -4.3528   -1.7071   -0.3129 C.3     1  UNL1        0.0635
     13 O          -4.9759   -0.9913    0.6640 O.3     1  UNL1       -0.3767
     14 C          -4.4307    0.2023    1.0326 C.3     1  UNL1        0.0635
     15 C          -2.9161    0.1378    1.2969 C.3     1  UNL1        0.0384
     16 N           0.1701   -0.4745    0.0450 N.ar    1  UNL1       -0.2634
     17 C           0.2906    0.9158   -0.1870 C.ar    1  UNL1        0.0512
     18 C          -0.1870    1.4814   -1.3474 C.ar    1  UNL1       -0.0377
     19 C          -0.0662    2.8510   -1.5758 C.ar    1  UNL1       -0.0598
     20 C           0.5346    3.6601   -0.6385 C.ar    1  UNL1       -0.0616
     21 C           1.0153    3.1135    0.5225 C.ar    1  UNL1       -0.0598
     22 C           0.8910    1.7404    0.7427 C.ar    1  UNL1       -0.0377
     23 C           3.2596   -0.2099   -0.6261 C.ar    1  UNL1       -0.0497
     24 C           4.6555   -0.1481   -0.6666 C.ar    1  UNL1       -0.0427
     25 H           5.3985   -2.8542    1.1395 H       1  UNL1        0.0632
     26 H           2.9155   -2.9711    1.2136 H       1  UNL1        0.0625
     27 H          -2.7487   -1.4238   -1.7286 H       1  UNL1        0.0487
     28 H          -3.6383    0.1162   -1.2764 H       1  UNL1        0.0487
     29 H          -5.0264   -2.0952   -1.0811 H       1  UNL1        0.0575
     30 H          -3.8003   -2.5492    0.2145 H       1  UNL1        0.0575
     31 H          -4.6268    1.0140    0.2842 H       1  UNL1        0.0575
     32 H          -4.9387    0.5356    1.9696 H       1  UNL1        0.0575
     33 H          -2.8143   -0.3650    2.2669 H       1  UNL1        0.0487
     34 H          -2.5846    1.1901    1.2950 H       1  UNL1        0.0487
     35 H          -0.6735    0.9007   -2.1291 H       1  UNL1        0.0638
     36 H          -0.4325    3.2973   -2.4818 H       1  UNL1        0.0618
     37 H           0.6224    4.7060   -0.8245 H       1  UNL1        0.0618
     38 H           1.4879    3.7486    1.2572 H       1  UNL1        0.0618
     39 H           1.2669    1.3173    1.6405 H       1  UNL1        0.0638
     40 H           2.6853    0.5430   -1.1408 H       1  UNL1        0.0625
     41 H           5.1544    0.6692   -1.2066 H       1  UNL1        0.0632
@<TRIPOS>BOND
     1     1     2    1
     2     2     3   ar
     3     3     4   ar
     4     4     5   ar
     5     5     6    1
     6     6     7   ar
     7     7     8   ar
     8     8     9   ar
     9     9    10    1
    10    10    11    1
    11    11    12    1
    12    12    13    1
    13    13    14    1
    14    14    15    1
    15     9    16   ar
    16    16    17    1
    17    17    18   ar
    18    18    19   ar
    19    19    20   ar
    20    20    21   ar
    21    21    22   ar
    22     5    23   ar
    23    23    24   ar
    24    24     2   ar
    25    16     6   ar
    26    22    17   ar
    27    15    10    1
    28     3    25    1
    29     4    26    1
    30    11    27    1
    31    11    28    1
    32    12    29    1
    33    12    30    1
    34    14    31    1
    35    14    32    1
    36    15    33    1
    37    15    34    1
    38    18    35    1
    39    19    36    1
    40    20    37    1
    41    21    38    1
    42    22    39    1
    43    23    40    1
    44    24    41    1
@<TRIPOS>MOLECULE
50487935
 48 51 0 0 0
SMALL
GASTEIGER

@<TRIPOS>ATOM
      1 C          -7.5480   -2.1225   -0.6908 C.ar    1  UNL1       -0.0615
      2 C          -6.6602   -2.9443   -0.0394 C.ar    1  UNL1       -0.0583
      3 C          -5.4524   -2.4467    0.3346 C.ar    1  UNL1       -0.0193
      4 C          -5.0481   -1.1131    0.0898 C.ar    1  UNL1        0.1284
      5 O          -3.8692   -0.7617    0.4978 O.3     1  UNL1       -0.4560
      6 C          -2.9250    0.1540    0.6062 C.ar    1  UNL1        0.1285
      7 C          -1.7439   -0.1913    1.3146 C.ar    1  UNL1       -0.0190
      8 C          -0.7151    0.6888    1.4793 C.ar    1  UNL1       -0.0539
      9 C          -0.7615    1.9506    0.9733 C.ar    1  UNL1       -0.0334
     10 C           0.3331    2.9351    1.1483 C.3     1  UNL1        0.0213
     11 N           1.2574    2.8088    0.0652 N.3     1  UNL1       -0.3117
     12 C           1.8606    1.4906    0.0593 C.3     1  UNL1        0.0002
     13 C           2.8541    1.4952   -1.0848 C.3     1  UNL1       -0.0131
     14 C           3.5529    0.1938   -1.2038 C.ar    1  UNL1       -0.0212
     15 C           3.3526   -0.8074   -2.1286 C.ar    1  UNL1        0.0059
     16 N           4.2030   -1.8297   -1.8884 N.ar    1  UNL1       -0.3604
     17 C           4.9626   -1.5178   -0.8173 C.ar    1  UNL1        0.0467
     18 C           5.9643   -2.2260   -0.1882 C.ar    1  UNL1       -0.0378
     19 C           6.5769   -1.6504    0.9015 C.ar    1  UNL1       -0.0598
     20 C           6.1857   -0.3932    1.3410 C.ar    1  UNL1       -0.0611
     21 C           5.1696    0.3147    0.6956 C.ar    1  UNL1       -0.0523
     22 C           4.5644   -0.2624   -0.3865 C.ar    1  UNL1        0.0029
     23 C          -1.8863    2.3290    0.2785 C.ar    1  UNL1       -0.0539
     24 C          -2.9325    1.4324    0.1119 C.ar    1  UNL1       -0.0190
     25 C          -5.9629   -0.3255   -0.5624 C.ar    1  UNL1       -0.0193
     26 C          -7.2094   -0.8270   -0.9522 C.ar    1  UNL1       -0.0583
     27 H          -8.5141   -2.4817   -1.0028 H       1  UNL1        0.0618
     28 H          -6.9595   -3.9883    0.1595 H       1  UNL1        0.0619
     29 H          -4.7678   -3.1109    0.8466 H       1  UNL1        0.0654
     30 H          -1.7135   -1.2055    1.7175 H       1  UNL1        0.0654
     31 H           0.1813    0.3947    2.0293 H       1  UNL1        0.0622
     32 H          -0.0371    3.9819    1.1613 H       1  UNL1        0.0473
     33 H           0.8427    2.7543    2.1113 H       1  UNL1        0.0473
     34 H           0.8729    3.0690   -0.8546 H       1  UNL1        0.1223
     35 H           2.3598    1.2733    1.0028 H       1  UNL1        0.0427
     36 H           1.0770    0.7332   -0.1757 H       1  UNL1        0.0427
     37 H           3.5741    2.3051   -0.9332 H       1  UNL1        0.0326
     38 H           2.2633    1.7249   -2.0080 H       1  UNL1        0.0326
     39 H           2.6148   -0.7590   -2.9236 H       1  UNL1        0.0810
     40 H           4.2804   -2.7216   -2.4242 H       1  UNL1        0.1653
     41 H           6.2868   -3.2038   -0.5118 H       1  UNL1        0.0638
     42 H           7.3691   -2.1509    1.4405 H       1  UNL1        0.0618
     43 H           6.6613    0.0771    2.2035 H       1  UNL1        0.0618
     44 H           4.8693    1.2932    1.0415 H       1  UNL1        0.0624
     45 H          -1.9307    3.3343   -0.1304 H       1  UNL1        0.0622
     46 H          -3.8084    1.7660   -0.4465 H       1  UNL1        0.0654
     47 H          -5.7507    0.7144   -0.7973 H       1  UNL1        0.0654
     48 H          -7.8934   -0.1738   -1.4603 H       1  UNL1        0.0619
@<TRIPOS>BOND
     1     1     2   ar
     2     2     3   ar
     3     3     4   ar
     4     4     5    1
     5     5     6    1
     6     6     7   ar
     7     7     8   ar
     8     8     9   ar
     9     9    10    1
    10    10    11    1
    11    11    12    1
    12    12    13    1
    13    13    14    1
    14    14    15   ar
    15    15    16   ar
    16    16    17   ar
    17    17    18   ar
    18    18    19   ar
    19    19    20   ar
    20    20    21   ar
    21    21    22   ar
    22     9    23   ar
    23    23    24   ar
    24     4    25   ar
    25    25    26   ar
    26    26     1   ar
    27    24     6   ar
    28    22    14   ar
    29    22    17   ar
    30     1    27    1
    31     2    28    1
    32     3    29    1
    33     7    30    1
    34     8    31    1
    35    10    32    1
    36    10    33    1
    37    11    34    1
    38    12    35    1
    39    12    36    1
    40    13    37    1
    41    13    38    1
    42    15    39    1
    43    16    40    1
    44    18    41    1
    45    19    42    1
    46    20    43    1
    47    21    44    1
    48    23    45    1
    49    24    46    1
    50    25    47    1
    51    26    48    1
@<TRIPOS>MOLECULE
CHEMBL4067932
 49 51 0 0 0
SMALL
GASTEIGER

@<TRIPOS>ATOM
      1 C           5.9967   -2.4672   -2.4186 C.3     1  UNL1       -0.0397
      2 C           4.7887   -1.8977   -1.7518 C.ar    1  UNL1       -0.0502
      3 C           3.5184   -2.3318   -2.0547 C.ar    1  UNL1       -0.0554
      4 C           2.4099   -1.8002   -1.4340 C.ar    1  UNL1       -0.0197
      5 C           2.5119   -0.8150   -0.4858 C.ar    1  UNL1        0.1212
      6 O           1.4401   -0.2556    0.1586 O.3     1  UNL1       -0.4828
      7 C           1.4703    0.7273    1.1112 C.3     1  UNL1        0.1654
      8 C           0.2395    1.2166    1.7022 C.2     1  UNL1        0.2537
      9 O           0.3920    2.1840    2.5796 O.2     1  UNL1       -0.2718
     10 N          -1.1060    0.8491    1.5129 N.am    1  UNL1       -0.2908
     11 C          -2.1021    1.6104    2.2697 C.3     1  UNL1        0.0463
     12 C          -2.5602    2.8062    1.4924 C.ar    1  UNL1        0.0071
     13 C          -2.0678    4.0663    1.4172 C.ar    1  UNL1       -0.0500
     14 C          -2.6834    4.9721    0.6520 C.ar    1  UNL1       -0.0544
     15 C          -3.7948    4.5985   -0.0335 C.ar    1  UNL1       -0.0240
     16 S          -3.9829    2.8558    0.4322 S.2     1  UNL1       -0.1000
     17 C          -1.4655   -0.2323    0.6653 C.3     1  UNL1        0.0265
     18 C          -2.1351   -1.3674    1.4700 C.3     1  UNL1       -0.0343
     19 C          -2.8556   -2.2765    0.4852 C.3     1  UNL1       -0.0514
     20 C          -2.0698   -2.2904   -0.7878 C.3     1  UNL1       -0.0529
     21 C          -2.2416   -0.9893   -1.5404 C.3     1  UNL1       -0.0514
     22 C          -2.4312    0.0819   -0.4475 C.3     1  UNL1       -0.0343
     23 C           3.7922   -0.3675   -0.1708 C.ar    1  UNL1       -0.0197
     24 C           4.8966   -0.9054   -0.7972 C.ar    1  UNL1       -0.0554
     25 H           6.8823   -1.9549   -2.0145 H       1  UNL1        0.0278
     26 H           6.0271   -3.5592   -2.3474 H       1  UNL1        0.0278
     27 H           5.9427   -2.1987   -3.5088 H       1  UNL1        0.0278
     28 H           3.4103   -3.1202   -2.8110 H       1  UNL1        0.0621
     29 H           1.4292   -2.1742   -1.7056 H       1  UNL1        0.0654
     30 H           2.2267    0.4157    1.8878 H       1  UNL1        0.0795
     31 H           1.9663    1.6415    0.6347 H       1  UNL1        0.0795
     32 H          -1.6214    2.0074    3.1763 H       1  UNL1        0.0519
     33 H          -2.9593    0.9899    2.5884 H       1  UNL1        0.0519
     34 H          -1.1430    4.3321    2.0083 H       1  UNL1        0.0626
     35 H          -2.3290    6.0306    0.5452 H       1  UNL1        0.0623
     36 H          -4.4485    5.1166   -0.6924 H       1  UNL1        0.0693
     37 H          -0.5824   -0.7058    0.2296 H       1  UNL1        0.0500
     38 H          -1.3369   -1.9743    1.9338 H       1  UNL1        0.0283
     39 H          -2.8236   -0.9923    2.2235 H       1  UNL1        0.0283
     40 H          -2.8767   -3.2952    0.9322 H       1  UNL1        0.0266
     41 H          -3.9085   -1.9588    0.3202 H       1  UNL1        0.0266
     42 H          -1.0233   -2.5323   -0.5641 H       1  UNL1        0.0265
     43 H          -2.4479   -3.1254   -1.4347 H       1  UNL1        0.0265
     44 H          -1.4130   -0.7502   -2.2051 H       1  UNL1        0.0266
     45 H          -3.1696   -1.0540   -2.1366 H       1  UNL1        0.0266
     46 H          -3.4778    0.0130   -0.1831 H       1  UNL1        0.0283
     47 H          -2.1003    1.0188   -0.9296 H       1  UNL1        0.0283
     48 H           3.9291    0.4155    0.5776 H       1  UNL1        0.0654
     49 H           5.8875   -0.5575   -0.5519 H       1  UNL1        0.0621
@<TRIPOS>BOND
     1     1     2    1
     2     2     3   ar
     3     3     4   ar
     4     4     5   ar
     5     5     6    1
     6     6     7    1
     7     7     8    1
     8     8     9    2
     9     8    10   am
    10    10    11    1
    11    11    12    1
    12    12    13   ar
    13    13    14   ar
    14    14    15   ar
    15    15    16   ar
    16    10    17    1
    17    17    18    1
    18    18    19    1
    19    19    20    1
    20    20    21    1
    21    21    22    1
    22     5    23   ar
    23    23    24   ar
    24    24     2   ar
    25    16    12   ar
    26    22    17    1
    27     1    25    1
    28     1    26    1
    29     1    27    1
    30     3    28    1
    31     4    29    1
    32     7    30    1
    33     7    31    1
    34    11    32    1
    35    11    33    1
    36    13    34    1
    37    14    35    1
    38    15    36    1
    39    17    37    1
    40    18    38    1
    41    18    39    1
    42    19    40    1
    43    19    41    1
    44    20    42    1
    45    20    43    1
    46    21    44    1
    47    21    45    1
    48    22    46    1
    49    22    47    1
    50    23    48    1
    51    24    49    1
@<TRIPOS>MOLECULE
CHEMBL4098555
 38 39 0 0 0
SMALL
GASTEIGER

@<TRIPOS>ATOM
      1 C          -3.0276   -3.0422   -0.3171 C.3     1  UNL1       -0.0493
      2 C          -2.6569   -1.6852    0.1784 C.3     1  UNL1        0.0124
      3 N          -1.8143   -0.9584   -0.7590 N.am    1  UNL1       -0.2930
      4 C          -2.4907   -0.1396   -1.7230 C.3     1  UNL1        0.0602
      5 C          -2.8415    1.2199   -1.2280 C.ar    1  UNL1        0.0998
      6 C          -3.9937    1.5978   -0.5785 C.ar    1  UNL1        0.0470
      7 N          -3.9033    2.8998   -0.3188 N.ar    1  UNL1       -0.2646
      8 N          -2.7525    3.3316   -0.7787 N.ar    1  UNL1       -0.0681
      9 N          -2.0971    2.3290   -1.3319 N.ar    1  UNL1       -0.1331
     10 C          -0.4121   -1.0376   -0.7228 C.2     1  UNL1        0.2535
     11 O           0.0900   -1.7658    0.1830 O.2     1  UNL1       -0.2719
     12 C           0.4239   -0.3119   -1.6906 C.3     1  UNL1        0.1654
     13 O           1.7932   -0.4653   -1.4962 O.3     1  UNL1       -0.4828
     14 C           2.5257   -0.0871   -0.3903 C.ar    1  UNL1        0.1212
     15 C           3.8973   -0.3348   -0.3593 C.ar    1  UNL1       -0.0197
     16 C           4.6872    0.0128    0.7015 C.ar    1  UNL1       -0.0554
     17 C           4.0904    0.6329    1.7780 C.ar    1  UNL1       -0.0502
     18 C           4.8711    1.0424    2.9671 C.3     1  UNL1       -0.0397
     19 C           2.7361    0.8809    1.7542 C.ar    1  UNL1       -0.0554
     20 C           1.9364    0.5328    0.6877 C.ar    1  UNL1       -0.0197
     21 H          -3.7868   -3.4611    0.3750 H       1  UNL1        0.0245
     22 H          -3.5242   -3.0118   -1.3187 H       1  UNL1        0.0245
     23 H          -2.1680   -3.7507   -0.3157 H       1  UNL1        0.0245
     24 H          -3.5547   -1.0991    0.3846 H       1  UNL1        0.0462
     25 H          -2.0668   -1.8080    1.1086 H       1  UNL1        0.0462
     26 H          -1.8158   -0.0209   -2.6138 H       1  UNL1        0.0530
     27 H          -3.3937   -0.6784   -2.1201 H       1  UNL1        0.0530
     28 H          -4.8269    0.9321   -0.3279 H       1  UNL1        0.0843
     29 H          -4.5941    3.5204    0.1626 H       1  UNL1        0.1899
     30 H           0.2193   -0.6556   -2.7478 H       1  UNL1        0.0795
     31 H           0.1231    0.7602   -1.6973 H       1  UNL1        0.0795
     32 H           4.3750   -0.8260   -1.2100 H       1  UNL1        0.0654
     33 H           5.7521   -0.1721    0.7412 H       1  UNL1        0.0621
     34 H           4.2030    1.0014    3.8507 H       1  UNL1        0.0278
     35 H           5.7563    0.3816    3.0675 H       1  UNL1        0.0278
     36 H           5.1605    2.1066    2.8113 H       1  UNL1        0.0278
     37 H           2.2223    1.3725    2.5909 H       1  UNL1        0.0621
     38 H           0.8577    0.7573    0.7019 H       1  UNL1        0.0654
@<TRIPOS>BOND
     1     1     2    1
     2     2     3    1
     3     3     4    1
     4     4     5    1
     5     5     6   ar
     6     6     7   ar
     7     7     8   ar
     8     8     9   ar
     9     3    10   am
    10    10    11    2
    11    10    12    1
    12    12    13    1
    13    13    14    1
    14    14    15   ar
    15    15    16   ar
    16    16    17   ar
    17    17    18    1
    18    17    19   ar
    19    19    20   ar
    20     9     5   ar
    21    20    14   ar
    22     1    21    1
    23     1    22    1
    24     1    23    1
    25     2    24    1
    26     2    25    1
    27     4    26    1
    28     4    27    1
    29     6    28    1
    30     7    29    1
    31    12    30    1
    32    12    31    1
    33    15    32    1
    34    16    33    1
    35    18    34    1
    36    18    35    1
    37    18    36    1
    38    19    37    1
    39    20    38    1
@<TRIPOS>MOLECULE
CHEMBL5283847
 43 43 0 0 0
SMALL
GASTEIGER

@<TRIPOS>ATOM
      1 C           5.5543   -1.4358    0.0640 C.3     1  UNL1       -0.0305
      2 C           5.3424    0.0564   -0.0069 C.3     1  UNL1        0.0913
      3 O           3.9958    0.4177    0.2709 O.3     1  UNL1       -0.4504
      4 C           3.0043   -0.0828   -0.5441 C.2     1  UNL1        0.4066
      5 O           3.3161   -0.8350   -1.4977 O.2     1  UNL1       -0.2260
      6 N           1.6130    0.2182   -0.3533 N.am    1  UNL1       -0.2213
      7 C           0.6059   -0.3134   -1.2120 C.2     1  UNL1        0.2251
      8 O           0.9340   -1.0586   -2.1537 O.2     1  UNL1       -0.2750
      9 C          -0.8001    0.0719   -0.9112 C.3     1  UNL1        0.0393
     10 C          -0.8754    1.5637   -1.0099 C.3     1  UNL1       -0.0391
     11 C          -2.0157    2.1746   -0.2599 C.3     1  UNL1       -0.0432
     12 C          -1.8678    3.6815   -0.3207 C.3     1  UNL1       -0.0624
     13 C          -1.9926    1.7203    1.1898 C.3     1  UNL1       -0.0502
     14 C          -2.2087    0.2286    1.1660 C.3     1  UNL1       -0.0490
     15 C          -1.1643   -0.4985    0.4040 C.3     1  UNL1       -0.0276
     16 C          -1.6271   -1.9407    0.1956 C.3     1  UNL1       -0.0432
     17 C          -2.0095   -2.5496    1.5495 C.3     1  UNL1       -0.0624
     18 C          -2.8366   -2.0224   -0.6768 C.3     1  UNL1       -0.0624
     19 H           6.0931   -1.8167   -0.8516 H       1  UNL1        0.0262
     20 H           4.5720   -1.9493    0.1932 H       1  UNL1        0.0262
     21 H           6.2329   -1.6553    0.9145 H       1  UNL1        0.0262
     22 H           5.6022    0.3875   -1.0409 H       1  UNL1        0.0695
     23 H           6.0494    0.5808    0.6734 H       1  UNL1        0.0695
     24 H           1.3881    0.8460    0.4478 H       1  UNL1        0.1609
     25 H          -1.4337   -0.3922   -1.7156 H       1  UNL1        0.0397
     26 H          -0.9854    1.8303   -2.0817 H       1  UNL1        0.0275
     27 H           0.0623    2.0670   -0.6653 H       1  UNL1        0.0275
     28 H          -2.9997    1.8928   -0.6654 H       1  UNL1        0.0298
     29 H          -2.0858    4.1458    0.6644 H       1  UNL1        0.0232
     30 H          -0.8479    3.9935   -0.6282 H       1  UNL1        0.0232
     31 H          -2.5521    4.0943   -1.1146 H       1  UNL1        0.0232
     32 H          -2.8628    2.1907    1.6990 H       1  UNL1        0.0268
     33 H          -1.0559    2.0149    1.7064 H       1  UNL1        0.0268
     34 H          -3.2441    0.0516    0.8378 H       1  UNL1        0.0268
     35 H          -2.1642   -0.1287    2.2306 H       1  UNL1        0.0268
     36 H          -0.2509   -0.5805    1.0588 H       1  UNL1        0.0311
     37 H          -0.8104   -2.5619   -0.2111 H       1  UNL1        0.0298
     38 H          -1.1109   -2.5241    2.1726 H       1  UNL1        0.0232
     39 H          -2.2517   -3.6283    1.3200 H       1  UNL1        0.0232
     40 H          -2.8885   -2.0406    1.9846 H       1  UNL1        0.0232
     41 H          -2.5304   -2.4331   -1.6608 H       1  UNL1        0.0232
     42 H          -3.2937   -1.0321   -0.8900 H       1  UNL1        0.0232
     43 H          -3.5998   -2.7488   -0.2714 H       1  UNL1        0.0232
@<TRIPOS>BOND
     1     1     2    1
     2     2     3    1
     3     3     4    1
     4     4     5    2
     5     4     6   am
     6     6     7   am
     7     7     8    2
     8     7     9    1
     9     9    10    1
    10    10    11    1
    11    11    12    1
    12    11    13    1
    13    13    14    1
    14    14    15    1
    15    15    16    1
    16    16    17    1
    17    16    18    1
    18    15     9    1
    19     1    19    1
    20     1    20    1
    21     1    21    1
    22     2    22    1
    23     2    23    1
    24     6    24    1
    25     9    25    1
    26    10    26    1
    27    10    27    1
    28    11    28    1
    29    12    29    1
    30    12    30    1
    31    12    31    1
    32    13    32    1
    33    13    33    1
    34    14    34    1
    35    14    35    1
    36    15    36    1
    37    16    37    1
    38    17    38    1
    39    17    39    1
    40    17    40    1
    41    18    41    1
    42    18    42    1
    43    18    43    1
@<TRIPOS>MOLECULE
CHEMBL1457614
 33 34 0 0 0
SMALL
GASTEIGER

@<TRIPOS>ATOM
      1 C          -6.1215   -0.0460    0.9634 C.3     1  UNL1       -0.0397
      2 C          -4.6935   -0.0789    0.5849 C.ar    1  UNL1       -0.0502
      3 C          -4.0045    1.0872    0.4338 C.ar    1  UNL1       -0.0554
      4 C          -2.6648    1.0750    0.0792 C.ar    1  UNL1       -0.0197
      5 C          -2.0019   -0.1232   -0.1281 C.ar    1  UNL1        0.1212
      6 O          -0.6488   -0.1620   -0.4869 O.3     1  UNL1       -0.4828
      7 C           0.0311    1.0615   -0.6341 C.3     1  UNL1        0.1651
      8 C           1.4574    0.7737   -1.0189 C.2     1  UNL1        0.2509
      9 O           2.2623    1.7283   -1.2063 O.2     1  UNL1       -0.2721
     10 N           1.9048   -0.5655   -1.1729 N.am    1  UNL1       -0.3079
     11 C           3.2721   -0.8901   -1.5432 C.3     1  UNL1        0.0431
     12 C           4.2623   -0.3881   -0.5762 C.ar    1  UNL1        0.0069
     13 C           4.8053   -0.9481    0.5367 C.ar    1  UNL1       -0.0500
     14 C           5.7011   -0.2859    1.2663 C.ar    1  UNL1       -0.0544
     15 C           6.0487    0.9848    0.8423 C.ar    1  UNL1       -0.0240
     16 S           5.0749    1.2208   -0.6176 S.2     1  UNL1       -0.1000
     17 C          -2.7345   -1.2798    0.0348 C.ar    1  UNL1       -0.0197
     18 C          -4.0655   -1.2965    0.3863 C.ar    1  UNL1       -0.0554
     19 H          -6.7730   -0.1047    0.0542 H       1  UNL1        0.0278
     20 H          -6.3607   -0.8828    1.6624 H       1  UNL1        0.0278
     21 H          -6.2982    0.8900    1.5314 H       1  UNL1        0.0278
     22 H          -4.5213    2.0334    0.5957 H       1  UNL1        0.0621
     23 H          -2.1320    2.0091   -0.0368 H       1  UNL1        0.0654
     24 H           0.0183    1.5478    0.3808 H       1  UNL1        0.0795
     25 H          -0.4326    1.6742   -1.4109 H       1  UNL1        0.0795
     26 H           1.1961   -1.3193   -1.0056 H       1  UNL1        0.1491
     27 H           3.4513   -0.3473   -2.5161 H       1  UNL1        0.0517
     28 H           3.4252   -1.9612   -1.6788 H       1  UNL1        0.0517
     29 H           4.4737   -1.9869    0.8203 H       1  UNL1        0.0626
     30 H           6.2000   -0.6625    2.1927 H       1  UNL1        0.0623
     31 H           6.7440    1.6882    1.2765 H       1  UNL1        0.0693
     32 H          -2.2461   -2.2308   -0.1197 H       1  UNL1        0.0654
     33 H          -4.6298   -2.2145    0.5110 H       1  UNL1        0.0621
@<TRIPOS>BOND
     1     1     2    1
     2     2     3   ar
     3     3     4   ar
     4     4     5   ar
     5     5     6    1
     6     6     7    1
     7     7     8    1
     8     8     9    2
     9     8    10   am
    10    10    11    1
    11    11    12    1
    12    12    13   ar
    13    13    14   ar
    14    14    15   ar
    15    15    16   ar
    16     5    17   ar
    17    17    18   ar
    18    18     2   ar
    19    16    12   ar
    20     1    19    1
    21     1    20    1
    22     1    21    1
    23     3    22    1
    24     4    23    1
    25     7    24    1
    26     7    25    1
    27    10    26    1
    28    11    27    1
    29    11    28    1
    30    13    29    1
    31    14    30    1
    32    15    31    1
    33    17    32    1
    34    18    33    1
@<TRIPOS>MOLECULE
1189572
 44 43 0 0 0
SMALL
GASTEIGER

@<TRIPOS>ATOM
      1 C           4.2810   -0.1753    0.5587 C.3     1  UNL1       -0.0653
      2 C           3.0634   -0.9831    0.1865 C.3     1  UNL1       -0.0559
      3 C           2.3772   -0.4527   -1.0428 C.3     1  UNL1       -0.0529
      4 C           1.9013    0.9525   -0.9020 C.3     1  UNL1       -0.0464
      5 C           0.9145    1.1663    0.1979 C.3     1  UNL1        0.0010
      6 P          -0.5729    0.1930   -0.0132 P.3     1  UNL1        0.0896
      7 O          -0.5941   -0.3614   -1.4171 O.2     1  UNL1       -0.3210
      8 C          -2.0817    1.1594    0.2034 C.3     1  UNL1        0.0033
      9 C          -1.9563    2.5609   -0.3241 C.3     1  UNL1       -0.0401
     10 C          -3.2832    3.2536   -0.0795 C.3     1  UNL1       -0.0623
     11 C          -1.5579    2.6373   -1.7556 C.3     1  UNL1       -0.0623
     12 C          -0.5963   -1.1308    1.2273 C.3     1  UNL1        0.0033
     13 C          -0.4198   -2.4954    0.6008 C.3     1  UNL1       -0.0401
     14 C          -1.5253   -2.7804   -0.3878 C.3     1  UNL1       -0.0623
     15 C          -0.6032   -3.5047    1.7427 C.3     1  UNL1       -0.0623
     16 H           4.5403   -0.4579    1.6160 H       1  UNL1        0.0230
     17 H           4.0806    0.9066    0.5694 H       1  UNL1        0.0230
     18 H           5.1806   -0.4497   -0.0375 H       1  UNL1        0.0230
     19 H           2.4137   -1.1094    1.0520 H       1  UNL1        0.0263
     20 H           3.4344   -2.0152   -0.0845 H       1  UNL1        0.0263
     21 H           3.1627   -0.4444   -1.8539 H       1  UNL1        0.0265
     22 H           1.6047   -1.1408   -1.3867 H       1  UNL1        0.0265
     23 H           1.3899    1.2132   -1.8755 H       1  UNL1        0.0270
     24 H           2.7546    1.6438   -0.8343 H       1  UNL1        0.0270
     25 H           0.6321    2.2279    0.2475 H       1  UNL1        0.0342
     26 H           1.4434    0.9098    1.1607 H       1  UNL1        0.0342
     27 H          -2.8883    0.6577   -0.3630 H       1  UNL1        0.0344
     28 H          -2.3618    1.1886    1.2578 H       1  UNL1        0.0344
     29 H          -1.2012    3.1310    0.2725 H       1  UNL1        0.0300
     30 H          -3.9618    3.1452   -0.9604 H       1  UNL1        0.0232
     31 H          -3.1610    4.3373    0.0994 H       1  UNL1        0.0232
     32 H          -3.8249    2.7889    0.7751 H       1  UNL1        0.0232
     33 H          -2.1107    3.4763   -2.2321 H       1  UNL1        0.0232
     34 H          -0.4750    2.8939   -1.8725 H       1  UNL1        0.0232
     35 H          -1.7659    1.7219   -2.3402 H       1  UNL1        0.0232
     36 H           0.2081   -1.0042    1.9902 H       1  UNL1        0.0344
     37 H          -1.5609   -1.1688    1.7867 H       1  UNL1        0.0344
     38 H           0.5843   -2.6210    0.2010 H       1  UNL1        0.0300
     39 H          -2.4154   -2.1400   -0.2173 H       1  UNL1        0.0232
     40 H          -1.8912   -3.8399   -0.2961 H       1  UNL1        0.0232
     41 H          -1.1119   -2.6865   -1.4024 H       1  UNL1        0.0232
     42 H          -0.3909   -4.5019    1.2868 H       1  UNL1        0.0232
     43 H          -1.6828   -3.4237    2.0431 H       1  UNL1        0.0232
     44 H           0.0276   -3.2780    2.6021 H       1  UNL1        0.0232
@<TRIPOS>BOND
     1     1     2    1
     2     2     3    1
     3     3     4    1
     4     4     5    1
     5     5     6    1
     6     6     7    2
     7     6     8    1
     8     8     9    1
     9     9    10    1
    10     9    11    1
    11     6    12    1
    12    12    13    1
    13    13    14    1
    14    13    15    1
    15     1    16    1
    16     1    17    1
    17     1    18    1
    18     2    19    1
    19     2    20    1
    20     3    21    1
    21     3    22    1
    22     4    23    1
    23     4    24    1
    24     5    25    1
    25     5    26    1
    26     8    27    1
    27     8    28    1
    28     9    29    1
    29    10    30    1
    30    10    31    1
    31    10    32    1
    32    11    33    1
    33    11    34    1
    34    11    35    1
    35    12    36    1
    36    12    37    1
    37    13    38    1
    38    14    39    1
    39    14    40    1
    40    14    41    1
    41    15    42    1
    42    15    43    1
    43    15    44    1
@<TRIPOS>MOLECULE
CHEMBL4091795
 41 43 0 0 0
SMALL
GASTEIGER

@<TRIPOS>ATOM
      1 C           6.9103   -1.3378    0.3763 C.3     1  UNL1       -0.0397
      2 C           5.4382   -1.2351    0.5423 C.ar    1  UNL1       -0.0502
      3 C           4.7131   -0.2142   -0.0163 C.ar    1  UNL1       -0.0554
      4 C           3.3524   -0.1252    0.1412 C.ar    1  UNL1       -0.0197
      5 C           2.6521   -1.0726    0.8775 C.ar    1  UNL1        0.1212
      6 O           1.2764   -0.9871    1.0396 O.3     1  UNL1       -0.4828
      7 C           0.5038    0.0387    0.4855 C.3     1  UNL1        0.1654
      8 C          -0.9301   -0.1318    0.8256 C.2     1  UNL1        0.2539
      9 O          -1.2539   -1.1160    1.5264 O.2     1  UNL1       -0.2718
     10 N          -1.9379    0.7637    0.3949 N.am    1  UNL1       -0.2864
     11 C          -3.2943    0.5143    0.7747 C.3     1  UNL1        0.0464
     12 C          -4.0439   -0.3668   -0.1606 C.ar    1  UNL1        0.0071
     13 C          -4.8697   -0.1223   -1.2386 C.ar    1  UNL1       -0.0500
     14 C          -5.3954   -1.1495   -1.8916 C.ar    1  UNL1       -0.0544
     15 C          -5.1395   -2.4481   -1.5220 C.ar    1  UNL1       -0.0240
     16 S          -4.0379   -2.1785   -0.1002 S.2     1  UNL1       -0.1000
     17 C          -1.5542    1.8786   -0.3766 C.3     1  UNL1        0.0730
     18 C          -1.9227    3.2461    0.2208 C.3     1  UNL1        0.0685
     19 O          -1.8047    3.7003   -1.1242 O.3     1  UNL1       -0.3759
     20 C          -2.4288    2.4471   -1.4284 C.3     1  UNL1        0.0685
     21 C           3.3978   -2.0905    1.4308 C.ar    1  UNL1       -0.0197
     22 C           4.7785   -2.1791    1.2700 C.ar    1  UNL1       -0.0554
     23 H           7.4311   -0.7254    1.1620 H       1  UNL1        0.0278
     24 H           7.1690   -1.0006   -0.6415 H       1  UNL1        0.0278
     25 H           7.2592   -2.3933    0.4871 H       1  UNL1        0.0278
     26 H           5.2427    0.5228   -0.5867 H       1  UNL1        0.0621
     27 H           2.7581    0.6688   -0.2884 H       1  UNL1        0.0654
     28 H           0.6589    0.1674   -0.6053 H       1  UNL1        0.0795
     29 H           0.8707    1.0019    0.9440 H       1  UNL1        0.0795
     30 H          -3.2397    0.0399    1.7966 H       1  UNL1        0.0519
     31 H          -3.8644    1.4610    0.9575 H       1  UNL1        0.0519
     32 H          -5.0631    0.9513   -1.5057 H       1  UNL1        0.0626
     33 H          -6.0759   -1.0083   -2.7788 H       1  UNL1        0.0623
     34 H          -5.4389   -3.3680   -1.8842 H       1  UNL1        0.0693
     35 H          -0.4615    1.9531   -0.6210 H       1  UNL1        0.0546
     36 H          -1.1555    3.7197    0.8256 H       1  UNL1        0.0579
     37 H          -2.9756    3.3557    0.5125 H       1  UNL1        0.0579
     38 H          -3.4918    2.5863   -1.1224 H       1  UNL1        0.0579
     39 H          -2.2636    2.0933   -2.4407 H       1  UNL1        0.0579
     40 H           2.9128   -2.8698    2.0221 H       1  UNL1        0.0654
     41 H           5.3180   -2.9900    1.7194 H       1  UNL1        0.0621
@<TRIPOS>BOND
     1     1     2    1
     2     2     3   ar
     3     3     4   ar
     4     4     5   ar
     5     5     6    1
     6     6     7    1
     7     7     8    1
     8     8     9    2
     9     8    10   am
    10    10    11    1
    11    11    12    1
    12    12    13   ar
    13    13    14   ar
    14    14    15   ar
    15    15    16   ar
    16    10    17    1
    17    17    18    1
    18    18    19    1
    19    19    20    1
    20     5    21   ar
    21    21    22   ar
    22    22     2   ar
    23    16    12   ar
    24    20    17    1
    25     1    23    1
    26     1    24    1
    27     1    25    1
    28     3    26    1
    29     4    27    1
    30     7    28    1
    31     7    29    1
    32    11    30    1
    33    11    31    1
    34    13    32    1
    35    14    33    1
    36    15    34    1
    37    17    35    1
    38    18    36    1
    39    18    37    1
    40    20    38    1
    41    20    39    1
    42    21    40    1
    43    22    41    1
@<TRIPOS>MOLECULE
CHEMBL4074700
 40 41 0 0 0
SMALL
GASTEIGER

@<TRIPOS>ATOM
      1 C           1.1501   -2.9305    0.4310 C.3     1  UNL1       -0.0493
      2 C           1.9666   -1.9263   -0.3102 C.3     1  UNL1        0.0123
      3 N           1.6846   -0.5561    0.1663 N.am    1  UNL1       -0.2941
      4 C           2.4769   -0.0489    1.2310 C.3     1  UNL1        0.0460
      5 C           3.6970    0.5994    0.7707 C.ar    1  UNL1        0.0071
      6 C           4.9370    0.0684    0.4897 C.ar    1  UNL1       -0.0500
      7 C           5.9134    0.8780    0.0968 C.ar    1  UNL1       -0.0544
      8 C           5.6868    2.2082   -0.0244 C.ar    1  UNL1       -0.0240
      9 S           3.9443    2.3089    0.4607 S.2     1  UNL1       -0.1000
     10 C           0.6667    0.2087   -0.4367 C.2     1  UNL1        0.2535
     11 O           0.0029   -0.2873   -1.4082 O.2     1  UNL1       -0.2719
     12 C           0.3384    1.5662    0.0207 C.3     1  UNL1        0.1654
     13 O          -0.8339    2.0384   -0.6626 O.3     1  UNL1       -0.4828
     14 C          -2.0352    1.3659   -0.4866 C.ar    1  UNL1        0.1212
     15 C          -3.1780    1.8096   -1.1672 C.ar    1  UNL1       -0.0196
     16 C          -4.3932    1.1838   -1.0296 C.ar    1  UNL1       -0.0529
     17 C          -4.5534    0.0950   -0.2217 C.ar    1  UNL1       -0.0220
     18 C          -5.8747   -0.5681   -0.0860 C.3     1  UNL1        0.0692
     19 O          -5.9259   -1.5584   -1.0857 O.3     1  UNL1       -0.3904
     20 C          -3.4451   -0.3600    0.4581 C.ar    1  UNL1       -0.0529
     21 C          -2.2051    0.2678    0.3265 C.ar    1  UNL1       -0.0196
     22 H           0.3064   -2.3781    0.9254 H       1  UNL1        0.0245
     23 H           0.7898   -3.7646   -0.1966 H       1  UNL1        0.0245
     24 H           1.7472   -3.3584    1.2481 H       1  UNL1        0.0245
     25 H           3.0360   -2.1111   -0.1182 H       1  UNL1        0.0462
     26 H           1.7662   -2.0157   -1.3956 H       1  UNL1        0.0462
     27 H           2.7481   -0.8507    1.9430 H       1  UNL1        0.0519
     28 H           1.8915    0.7043    1.8209 H       1  UNL1        0.0519
     29 H           5.0548   -1.0393    0.6110 H       1  UNL1        0.0626
     30 H           6.9469    0.4910   -0.1451 H       1  UNL1        0.0623
     31 H           6.3147    3.0534   -0.3225 H       1  UNL1        0.0693
     32 H           0.1915    1.6436    1.1162 H       1  UNL1        0.0795
     33 H           1.1357    2.3104   -0.2782 H       1  UNL1        0.0795
     34 H          -3.0538    2.6822   -1.8159 H       1  UNL1        0.0654
     35 H          -5.2573    1.5661   -1.5809 H       1  UNL1        0.0622
     36 H          -6.6725    0.1930   -0.2956 H       1  UNL1        0.0607
     37 H          -5.9691   -1.0195    0.9136 H       1  UNL1        0.0607
     38 H          -6.0821   -1.1222   -1.9627 H       1  UNL1        0.2098
     39 H          -3.5433   -1.2326    1.1144 H       1  UNL1        0.0622
     40 H          -1.3707   -0.1145    0.8867 H       1  UNL1        0.0654
@<TRIPOS>BOND
     1     1     2    1
     2     2     3    1
     3     3     4    1
     4     4     5    1
     5     5     6   ar
     6     6     7   ar
     7     7     8   ar
     8     8     9   ar
     9     3    10   am
    10    10    11    2
    11    10    12    1
    12    12    13    1
    13    13    14    1
    14    14    15   ar
    15    15    16   ar
    16    16    17   ar
    17    17    18    1
    18    18    19    1
    19    17    20   ar
    20    20    21   ar
    21     9     5   ar
    22    21    14   ar
    23     1    22    1
    24     1    23    1
    25     1    24    1
    26     2    25    1
    27     2    26    1
    28     4    27    1
    29     4    28    1
    30     6    29    1
    31     7    30    1
    32     8    31    1
    33    12    32    1
    34    12    33    1
    35    15    34    1
    36    16    35    1
    37    18    36    1
    38    18    37    1
    39    19    38    1
    40    20    39    1
    41    21    40    1
@<TRIPOS>MOLECULE
CHEMBL4093292
 40 41 0 0 0
SMALL
GASTEIGER

@<TRIPOS>ATOM
      1 C          -2.2827   -3.2309   -0.0453 C.3     1  UNL1       -0.0493
      2 C          -1.4249   -1.9740   -0.2319 C.3     1  UNL1        0.0123
      3 N          -1.6142   -1.0476    0.8256 N.am    1  UNL1       -0.2946
      4 C          -2.7211   -0.0419    0.6430 C.3     1  UNL1        0.0412
      5 C          -2.1001    1.1424   -0.0117 C.ar    1  UNL1       -0.0129
      6 C          -1.9925    1.3502   -1.3830 C.ar    1  UNL1       -0.0397
      7 C          -1.3563    2.5623   -1.5473 C.ar    1  UNL1        0.0019
      8 N          -1.0719    3.1016   -0.3507 N.ar    1  UNL1       -0.3667
      9 C          -1.5211    2.2440    0.5733 C.ar    1  UNL1        0.0063
     10 C          -0.9272   -0.9064    2.0358 C.2     1  UNL1        0.2535
     11 O          -1.3550   -0.0675    2.9276 O.2     1  UNL1       -0.2719
     12 C           0.2682   -1.6357    2.4261 C.3     1  UNL1        0.1654
     13 O           1.0554   -2.0238    1.3445 O.3     1  UNL1       -0.4828
     14 C           1.6667   -1.0162    0.5759 C.ar    1  UNL1        0.1212
     15 C           1.5271    0.3167    0.8511 C.ar    1  UNL1       -0.0197
     16 C           2.1477    1.2979    0.0661 C.ar    1  UNL1       -0.0554
     17 C           2.9239    0.9550   -1.0152 C.ar    1  UNL1       -0.0502
     18 C           3.5801    1.9985   -1.8449 C.3     1  UNL1       -0.0397
     19 C           3.0649   -0.3871   -1.2924 C.ar    1  UNL1       -0.0554
     20 C           2.4535   -1.3620   -0.5198 C.ar    1  UNL1       -0.0197
     21 H          -1.8226   -4.0933   -0.5656 H       1  UNL1        0.0245
     22 H          -2.4138   -3.4108    1.0423 H       1  UNL1        0.0245
     23 H          -3.2901   -3.0540   -0.4683 H       1  UNL1        0.0245
     24 H          -0.4195   -2.3189   -0.3582 H       1  UNL1        0.0462
     25 H          -1.7458   -1.5367   -1.2103 H       1  UNL1        0.0462
     26 H          -3.0800    0.1868    1.6471 H       1  UNL1        0.0514
     27 H          -3.4844   -0.5175    0.0262 H       1  UNL1        0.0514
     28 H          -2.3481    0.6745   -2.1459 H       1  UNL1        0.0636
     29 H          -1.1130    3.0279   -2.5118 H       1  UNL1        0.0807
     30 H          -0.5826    4.0332   -0.2030 H       1  UNL1        0.1648
     31 H          -1.4460    2.3847    1.6440 H       1  UNL1        0.0810
     32 H           0.9066   -0.9125    3.0424 H       1  UNL1        0.0795
     33 H           0.0302   -2.5128    3.0968 H       1  UNL1        0.0795
     34 H           0.9356    0.6459    1.6891 H       1  UNL1        0.0654
     35 H           2.0251    2.3590    0.3005 H       1  UNL1        0.0621
     36 H           3.0184    2.9664   -1.7596 H       1  UNL1        0.0278
     37 H           3.6461    1.6805   -2.8951 H       1  UNL1        0.0278
     38 H           4.6176    2.2078   -1.5081 H       1  UNL1        0.0278
     39 H           3.6821   -0.6668   -2.1524 H       1  UNL1        0.0621
     40 H           2.5638   -2.4192   -0.7372 H       1  UNL1        0.0654
@<TRIPOS>BOND
     1     1     2    1
     2     2     3    1
     3     3     4    1
     4     4     5    1
     5     5     6   ar
     6     6     7   ar
     7     7     8   ar
     8     8     9   ar
     9     3    10   am
    10    10    11    2
    11    10    12    1
    12    12    13    1
    13    13    14    1
    14    14    15   ar
    15    15    16   ar
    16    16    17   ar
    17    17    18    1
    18    17    19   ar
    19    19    20   ar
    20     9     5   ar
    21    20    14   ar
    22     1    21    1
    23     1    22    1
    24     1    23    1
    25     2    24    1
    26     2    25    1
    27     4    26    1
    28     4    27    1
    29     6    28    1
    30     7    29    1
    31     8    30    1
    32     9    31    1
    33    12    32    1
    34    12    33    1
    35    15    34    1
    36    16    35    1
    37    18    36    1
    38    18    37    1
    39    18    38    1
    40    19    39    1
    41    20    40    1
@<TRIPOS>MOLECULE
CHEMBL4083043
 43 44 0 0 0
SMALL
GASTEIGER

@<TRIPOS>ATOM
      1 C          -0.8810   -0.7902   -1.2492 C.3     1  UNL1       -0.0493
      2 C          -0.8593   -1.3970    0.1428 C.3     1  UNL1        0.0124
      3 N          -1.4144   -0.5293    1.1292 N.am    1  UNL1       -0.2932
      4 C          -2.8238   -0.6425    1.4596 C.3     1  UNL1        0.0550
      5 C          -3.7031    0.2175    0.6550 C.ar    1  UNL1        0.0359
      6 C          -3.9918    1.5337    0.9537 C.ar    1  UNL1       -0.0394
      7 C          -4.8607    2.0225   -0.0120 C.ar    1  UNL1       -0.0439
      8 C          -5.0820    0.9747   -0.8873 C.ar    1  UNL1        0.0046
      9 N          -4.3736   -0.0873   -0.4557 N.ar    1  UNL1       -0.3522
     10 C          -4.3657   -1.3669   -1.1107 C.3     1  UNL1        0.0116
     11 C          -0.6695    0.4331    1.8173 C.2     1  UNL1        0.2535
     12 O          -1.2338    1.1633    2.7279 O.2     1  UNL1       -0.2719
     13 C           0.7609    0.7388    1.6231 C.3     1  UNL1        0.1654
     14 O           1.3049   -0.0114    0.6048 O.3     1  UNL1       -0.4828
     15 C           2.6341    0.0566    0.1888 C.ar    1  UNL1        0.1212
     16 C           3.1108   -0.7267   -0.8398 C.ar    1  UNL1       -0.0197
     17 C           4.4444   -0.6601   -1.2590 C.ar    1  UNL1       -0.0554
     18 C           5.3264    0.2036   -0.6439 C.ar    1  UNL1       -0.0502
     19 C           6.7534    0.2926   -1.0732 C.3     1  UNL1       -0.0397
     20 C           4.8411    0.9840    0.3847 C.ar    1  UNL1       -0.0554
     21 C           3.5259    0.9158    0.7954 C.ar    1  UNL1       -0.0197
     22 H          -1.5995   -1.2617   -1.9296 H       1  UNL1        0.0245
     23 H          -1.1207    0.3057   -1.1829 H       1  UNL1        0.0245
     24 H           0.1440   -0.8398   -1.7219 H       1  UNL1        0.0245
     25 H           0.1189   -1.8210    0.3739 H       1  UNL1        0.0462
     26 H          -1.5506   -2.3184    0.0230 H       1  UNL1        0.0462
     27 H          -2.9730   -0.3540    2.5359 H       1  UNL1        0.0528
     28 H          -3.1509   -1.7238    1.4282 H       1  UNL1        0.0528
     29 H          -3.6295    2.1248    1.7835 H       1  UNL1        0.0636
     30 H          -5.3042    2.9928   -0.1182 H       1  UNL1        0.0633
     31 H          -5.7035    0.9682   -1.7695 H       1  UNL1        0.0809
     32 H          -5.4210   -1.7547   -1.2532 H       1  UNL1        0.0456
     33 H          -3.9748   -1.3024   -2.1670 H       1  UNL1        0.0456
     34 H          -3.8552   -2.1579   -0.5598 H       1  UNL1        0.0456
     35 H           0.9157    1.8541    1.4787 H       1  UNL1        0.0795
     36 H           1.2944    0.5548    2.6046 H       1  UNL1        0.0795
     37 H           2.4391   -1.4053   -1.3303 H       1  UNL1        0.0654
     38 H           4.8082   -1.2709   -2.0582 H       1  UNL1        0.0621
     39 H           7.3947    0.6852   -0.2622 H       1  UNL1        0.0278
     40 H           7.1603   -0.7159   -1.3215 H       1  UNL1        0.0278
     41 H           6.8705    0.9203   -1.9755 H       1  UNL1        0.0278
     42 H           5.5376    1.6640    0.8683 H       1  UNL1        0.0621
     43 H           3.1561    1.5315    1.6021 H       1  UNL1        0.0654
@<TRIPOS>BOND
     1     1     2    1
     2     2     3    1
     3     3     4    1
     4     4     5    1
     5     5     6   ar
     6     6     7   ar
     7     7     8   ar
     8     8     9   ar
     9     9    10    1
    10     3    11   am
    11    11    12    2
    12    11    13    1
    13    13    14    1
    14    14    15    1
    15    15    16   ar
    16    16    17   ar
    17    17    18   ar
    18    18    19    1
    19    18    20   ar
    20    20    21   ar
    21     9     5   ar
    22    21    15   ar
    23     1    22    1
    24     1    23    1
    25     1    24    1
    26     2    25    1
    27     2    26    1
    28     4    27    1
    29     4    28    1
    30     6    29    1
    31     7    30    1
    32     8    31    1
    33    10    32    1
    34    10    33    1
    35    10    34    1
    36    13    35    1
    37    13    36    1
    38    16    37    1
    39    17    38    1
    40    19    39    1
    41    19    40    1
    42    19    41    1
    43    20    42    1
    44    21    43    1
@<TRIPOS>MOLECULE
CHEMBL4090832
 41 42 0 0 0
SMALL
GASTEIGER

@<TRIPOS>ATOM
      1 C          -0.7998    2.8103    1.7545 C.3     1  UNL1       -0.0493
      2 C          -1.5900    1.5384    1.6677 C.3     1  UNL1        0.0124
      3 N          -1.3422    0.8286    0.4064 N.am    1  UNL1       -0.2931
      4 C          -2.1421    1.0724   -0.7486 C.3     1  UNL1        0.0569
      5 C          -3.4008    0.2715   -0.8057 C.ar    1  UNL1        0.0585
      6 C          -4.5728    0.7663   -0.2166 C.ar    1  UNL1       -0.0388
      7 C          -5.7506    0.0616   -0.2546 C.ar    1  UNL1       -0.0586
      8 C          -5.8038   -1.1774   -0.8890 C.ar    1  UNL1       -0.0436
      9 C          -4.6396   -1.6420   -1.4601 C.ar    1  UNL1        0.0279
     10 N          -3.5083   -0.9229   -1.4015 N.ar    1  UNL1       -0.2583
     11 C          -0.2855   -0.1068    0.3954 C.2     1  UNL1        0.2535
     12 O           0.4165   -0.3411    1.4216 O.2     1  UNL1       -0.2719
     13 C           0.0189   -0.8400   -0.8538 C.3     1  UNL1        0.1654
     14 O           1.1317   -1.6725   -0.7507 O.3     1  UNL1       -0.4828
     15 C           2.4245   -1.3215   -0.4771 C.ar    1  UNL1        0.1212
     16 C           2.8559   -0.0420   -0.2601 C.ar    1  UNL1       -0.0197
     17 C           4.1853    0.2373    0.0137 C.ar    1  UNL1       -0.0554
     18 C           5.1395   -0.7498    0.0820 C.ar    1  UNL1       -0.0502
     19 C           6.5613   -0.4183    0.3784 C.3     1  UNL1       -0.0397
     20 C           4.7177   -2.0430   -0.1351 C.ar    1  UNL1       -0.0554
     21 C           3.3973   -2.3277   -0.4077 C.ar    1  UNL1       -0.0197
     22 H          -1.2740    3.6605    1.2312 H       1  UNL1        0.0245
     23 H          -0.7671    3.1032    2.8392 H       1  UNL1        0.0245
     24 H           0.2320    2.6084    1.4609 H       1  UNL1        0.0245
     25 H          -1.2827    0.9056    2.5413 H       1  UNL1        0.0462
     26 H          -2.6759    1.7139    1.7980 H       1  UNL1        0.0462
     27 H          -2.3711    2.1704   -0.8367 H       1  UNL1        0.0529
     28 H          -1.6034    0.8398   -1.7067 H       1  UNL1        0.0529
     29 H          -4.5497    1.7111    0.2721 H       1  UNL1        0.0636
     30 H          -6.6784    0.4024    0.1852 H       1  UNL1        0.0619
     31 H          -6.7109   -1.7617   -0.9400 H       1  UNL1        0.0633
     32 H          -4.6837   -2.6163   -1.9585 H       1  UNL1        0.0829
     33 H          -0.8422   -1.5180   -1.1263 H       1  UNL1        0.0795
     34 H           0.1623   -0.1752   -1.7288 H       1  UNL1        0.0795
     35 H           2.1809    0.7812   -0.3015 H       1  UNL1        0.0654
     36 H           4.4937    1.2741    0.1822 H       1  UNL1        0.0621
     37 H           6.6761    0.0318    1.3961 H       1  UNL1        0.0278
     38 H           7.1923   -1.3031    0.2238 H       1  UNL1        0.0278
     39 H           6.9179    0.3669   -0.3361 H       1  UNL1        0.0278
     40 H           5.4803   -2.8260   -0.0800 H       1  UNL1        0.0621
     41 H           3.0907   -3.3510   -0.5744 H       1  UNL1        0.0654
@<TRIPOS>BOND
     1     1     2    1
     2     2     3    1
     3     3     4    1
     4     4     5    1
     5     5     6   ar
     6     6     7   ar
     7     7     8   ar
     8     8     9   ar
     9     9    10   ar
    10     3    11   am
    11    11    12    2
    12    11    13    1
    13    13    14    1
    14    14    15    1
    15    15    16   ar
    16    16    17   ar
    17    17    18   ar
    18    18    19    1
    19    18    20   ar
    20    20    21   ar
    21    10     5   ar
    22    21    15   ar
    23     1    22    1
    24     1    23    1
    25     1    24    1
    26     2    25    1
    27     2    26    1
    28     4    27    1
    29     4    28    1
    30     6    29    1
    31     7    30    1
    32     8    31    1
    33     9    32    1
    34    13    33    1
    35    13    34    1
    36    16    35    1
    37    17    36    1
    38    19    37    1
    39    19    38    1
    40    19    39    1
    41    20    40    1
    42    21    41    1
@<TRIPOS>MOLECULE
51494874
 36 38 0 0 0
SMALL
GASTEIGER

@<TRIPOS>ATOM
      1 N          -0.8985    5.7474    1.7483 N.1     1  UNL1       -0.1909
      2 C          -0.7840    4.7044    1.2618 C.1     1  UNL1        0.0992
      3 C          -0.6668    3.4108    0.6632 C.ar    1  UNL1        0.0521
      4 C          -0.4561    3.2973   -0.6975 C.ar    1  UNL1       -0.0440
      5 C          -0.3400    2.0597   -1.2953 C.ar    1  UNL1       -0.0553
      6 C          -0.4443    0.9328   -0.4683 C.ar    1  UNL1       -0.0228
      7 C          -0.6548    1.0619    0.8882 C.ar    1  UNL1       -0.0396
      8 C          -0.7672    2.2852    1.4639 C.ar    1  UNL1       -0.0408
      9 C          -0.7510   -0.2363    1.6542 C.3     1  UNL1       -0.0097
     10 CA         -1.7464   -1.0313    0.8079 C.3     1  UNL1        0.0355
     11 C          -2.2666   -2.2272    1.5537 C.3     1  UNL1        0.0599
     12 O          -2.8871   -1.8039    2.7331 O.3     1  UNL1       -0.3935
     13 N          -1.1055   -1.4201   -0.4025 N.3     1  UNL1       -0.3004
     14 C          -0.3247   -0.4190   -1.0439 C.3     1  UNL1        0.0591
     15 C           1.1133   -0.8260   -1.1830 C.ar    1  UNL1       -0.0220
     16 C           1.4251   -2.0967   -1.6178 C.ar    1  UNL1       -0.0214
     17 C           2.7519   -2.4933   -1.7533 C.ar    1  UNL1        0.1251
     18 F           3.0599   -3.7476   -2.1826 F       1  UNL1       -0.2054
     19 C           3.7699   -1.6211   -1.4548 C.ar    1  UNL1       -0.0081
     20 C           3.4782   -0.3567   -1.0221 C.ar    1  UNL1        0.0440
     21 CL          4.7461    0.7960   -0.6275 Cl      1  UNL1       -0.0834
     22 C           2.1529    0.0319   -0.8893 C.ar    1  UNL1       -0.0382
     23 H          -0.3772    4.1825   -1.3276 H       1  UNL1        0.0630
     24 H          -0.1738    1.9424   -2.3657 H       1  UNL1        0.0621
     25 H          -0.9317    2.3439    2.5309 H       1  UNL1        0.0633
     26 H           0.2489   -0.7122    1.5669 H       1  UNL1        0.0329
     27 H          -1.0964   -0.0844    2.6740 H       1  UNL1        0.0329
     28 HA         -2.5943   -0.3528    0.6018 H       1  UNL1        0.0486
     29 H1         -1.4999   -2.9902    1.7231 H       1  UNL1        0.0573
     30 H2         -3.0619   -2.6794    0.9299 H       1  UNL1        0.0573
     31 H          -3.8697   -1.7460    2.6288 H       1  UNL1        0.2095
     32 H          -1.8098   -1.8880   -1.0192 H       1  UNL1        0.1232
     33 H          -0.6939   -0.3563   -2.1102 H       1  UNL1        0.0560
     34 H           0.6731   -2.8300   -1.8688 H       1  UNL1        0.0649
     35 H           4.8210   -1.9001   -1.5501 H       1  UNL1        0.0661
     36 H           1.9616    1.0223   -0.5504 H       1  UNL1        0.0635
@<TRIPOS>BOND
     1     1     2    3
     2     2     3    1
     3     3     4   ar
     4     4     5   ar
     5     5     6   ar
     6     6     7   ar
     7     7     8   ar
     8     7     9    1
     9     9    10    1
    10    10    11    1
    11    11    12    1
    12    10    13    1
    13    13    14    1
    14    14    15    1
    15    15    16   ar
    16    16    17   ar
    17    17    18    1
    18    17    19   ar
    19    19    20   ar
    20    20    21    1
    21    20    22   ar
    22     8     3   ar
    23    22    15   ar
    24    14     6    1
    25     4    23    1
    26     5    24    1
    27     8    25    1
    28     9    26    1
    29     9    27    1
    30    10    28    1
    31    11    29    1
    32    11    30    1
    33    12    31    1
    34    13    32    1
    35    14    33    1
    36    16    34    1
    37    19    35    1
    38    22    36    1
@<TRIPOS>MOLECULE
51415146
 25 27 0 0 0
SMALL
GASTEIGER

@<TRIPOS>ATOM
      1 CL          6.7609    0.7016   -1.5081 Cl      1  UNL1       -0.0742
      2 C           5.3274    0.1609   -0.7363 C.ar    1  UNL1        0.0977
      3 C           5.0026   -0.2509    0.5007 C.ar    1  UNL1        0.0536
      4 N           3.7428   -0.5904    0.6804 N.ar    1  UNL1       -0.2492
      5 C           2.8736   -0.5997   -0.0218 C.ar    1  UNL1        0.0966
      6 C           1.4089   -0.9076   -0.1319 C.3     1  UNL1        0.0579
      7 N           0.6097    0.2532    0.1751 N.pl3   1  UNL1       -0.3366
      8 C          -0.7955    0.2686    0.1553 C.ar    1  UNL1        0.0471
      9 C          -1.5251   -0.8536   -0.1673 C.ar    1  UNL1       -0.0236
     10 C          -2.9363   -0.8201   -0.1822 C.ar    1  UNL1        0.0411
     11 S          -4.0671   -2.0427   -0.5393 S.2     1  UNL1        0.0116
     12 N          -5.5477   -0.9671   -0.2675 N.ar    1  UNL1       -0.2176
     13 C          -4.9920    0.2213    0.0703 C.ar    1  UNL1        0.0444
     14 C          -3.6457    0.2961    0.1140 C.ar    1  UNL1        0.0103
     15 C          -2.8897    1.4488    0.4454 C.ar    1  UNL1       -0.0319
     16 C          -1.5212    1.3810    0.4502 C.ar    1  UNL1        0.0624
     17 CL         -0.6160    2.8369    0.8679 Cl      1  UNL1       -0.0816
     18 S           3.6643    0.0200   -1.6281 S.2     1  UNL1       -0.0590
     19 H           5.7485   -0.2997    1.3121 H       1  UNL1        0.0850
     20 H           1.2369   -1.7475    0.5646 H       1  UNL1        0.0531
     21 H           1.1542   -1.2979   -1.1478 H       1  UNL1        0.0531
     22 H           1.1318    1.1232    0.4243 H       1  UNL1        0.1465
     23 H          -1.0435   -1.7726   -0.4129 H       1  UNL1        0.0648
     24 H          -5.7180    1.0490    0.2866 H       1  UNL1        0.0843
     25 H          -3.3638    2.3891    0.6971 H       1  UNL1        0.0639
@<TRIPOS>BOND
     1     1     2    1
     2     2     3   ar
     3     3     4   ar
     4     4     5   ar
     5     5     6    1
     6     6     7    1
     7     7     8    1
     8     8     9   ar
     9     9    10   ar
    10    10    11   ar
    11    11    12   ar
    12    12    13   ar
    13    13    14   ar
    14    14    15   ar
    15    15    16   ar
    16    16    17    1
    17     5    18   ar
    18    18     2   ar
    19    16     8   ar
    20    14    10   ar
    21     3    19    1
    22     6    20    1
    23     6    21    1
    24     7    22    1
    25     9    23    1
    26    13    24    1
    27    15    25    1
@<TRIPOS>MOLECULE
51415145
 25 27 0 0 0
SMALL
GASTEIGER

@<TRIPOS>ATOM
      1 CL          6.8673    0.8827   -1.1259 Cl      1  UNL1       -0.0742
      2 C           5.3641    0.1958   -0.5866 C.ar    1  UNL1        0.0977
      3 C           4.9992   -0.6079    0.4713 C.ar    1  UNL1        0.0536
      4 N           3.7382   -0.9179    0.5361 N.ar    1  UNL1       -0.2492
      5 C           2.8464   -0.6293   -0.1570 C.ar    1  UNL1        0.0966
      6 C           1.3781   -0.7965   -0.3635 C.3     1  UNL1        0.0579
      7 N           0.6414    0.2616    0.3324 N.pl3   1  UNL1       -0.3377
      8 C          -0.7703    0.2311    0.2247 C.ar    1  UNL1        0.0286
      9 C          -1.4593   -0.7156   -0.4805 C.ar    1  UNL1       -0.0402
     10 C          -2.8161   -0.7597   -0.5944 C.ar    1  UNL1       -0.0503
     11 C          -3.6127    0.2199    0.0429 C.ar    1  UNL1        0.0089
     12 C          -4.9541    0.2848    0.0062 C.ar    1  UNL1        0.0444
     13 N          -5.5783    1.2768    0.6627 N.ar    1  UNL1       -0.2176
     14 S          -4.1523    2.1843    1.3855 S.2     1  UNL1        0.0116
     15 C          -2.9449    1.1538    0.7377 C.ar    1  UNL1        0.0410
     16 C          -1.5392    1.1964    0.8536 C.ar    1  UNL1       -0.0251
     17 S           3.7254    0.4347   -1.4364 S.2     1  UNL1       -0.0590
     18 H           5.7734   -0.9362    1.1863 H       1  UNL1        0.0850
     19 H           1.0955   -1.7374    0.1128 H       1  UNL1        0.0531
     20 H           1.0996   -0.7354   -1.4227 H       1  UNL1        0.0531
     21 H           1.1026    0.9981    0.8763 H       1  UNL1        0.1465
     22 H          -0.8390   -1.4749   -0.9742 H       1  UNL1        0.0636
     23 H          -3.2303   -1.5590   -1.1795 H       1  UNL1        0.0625
     24 H          -5.6374   -0.4358   -0.5401 H       1  UNL1        0.0843
     25 H          -1.0972    1.9856    1.4333 H       1  UNL1        0.0648
@<TRIPOS>BOND
     1     1     2    1
     2     2     3   ar
     3     3     4   ar
     4     4     5   ar
     5     5     6    1
     6     6     7    1
     7     7     8    1
     8     8     9   ar
     9     9    10   ar
    10    10    11   ar
    11    11    12   ar
    12    12    13   ar
    13    13    14   ar
    14    14    15   ar
    15    15    16   ar
    16     5    17   ar
    17    17     2   ar
    18    16     8   ar
    19    15    11   ar
    20     3    18    1
    21     6    19    1
    22     6    20    1
    23     7    21    1
    24     9    22    1
    25    10    23    1
    26    12    24    1
    27    16    25    1
@<TRIPOS>MOLECULE
51415144
 25 27 0 0 0
SMALL
GASTEIGER

@<TRIPOS>ATOM
      1 CL          6.6169    1.1727   -1.3071 Cl      1  UNL1       -0.0742
      2 C           5.2035    0.4700   -0.6797 C.ar    1  UNL1        0.0977
      3 C           4.8459   -0.0534    0.5202 C.ar    1  UNL1        0.0536
      4 N           3.6484   -0.5242    0.6765 N.ar    1  UNL1       -0.2492
      5 C           2.7740   -0.5334   -0.2172 C.ar    1  UNL1        0.0966
      6 C           1.3572   -0.9929   -0.3263 C.3     1  UNL1        0.0579
      7 N           0.4781    0.0826    0.0446 N.pl3   1  UNL1       -0.3377
      8 C          -0.9452   -0.0623    0.0371 C.ar    1  UNL1        0.0281
      9 C          -1.4380   -1.2902   -0.3450 C.ar    1  UNL1       -0.0397
     10 C          -2.8072   -1.4166   -0.3480 C.ar    1  UNL1       -0.0442
     11 C          -3.6355   -0.3219    0.0276 C.ar    1  UNL1        0.0394
     12 S          -5.3120   -0.1636    0.1248 S.2     1  UNL1        0.0116
     13 N          -5.3243    1.5806    0.6872 N.ar    1  UNL1       -0.2176
     14 C          -4.0147    1.8452    0.7364 C.ar    1  UNL1        0.0444
     15 C          -3.1408    0.8801    0.4013 C.ar    1  UNL1        0.0106
     16 C          -1.7286    0.9908    0.3981 C.ar    1  UNL1       -0.0311
     17 S           3.6176    0.2161   -1.5861 S.2     1  UNL1       -0.0590
     18 H           5.5893   -0.0696    1.3523 H       1  UNL1        0.0850
     19 H           1.2480   -1.8408    0.3703 H       1  UNL1        0.0531
     20 H           1.1758   -1.2970   -1.3756 H       1  UNL1        0.0531
     21 H           0.9069    0.9907    0.3254 H       1  UNL1        0.1465
     22 H          -0.8375   -2.1265   -0.6310 H       1  UNL1        0.0636
     23 H          -3.3217   -2.3302   -0.6282 H       1  UNL1        0.0630
     24 H          -3.7333    2.8884    1.0648 H       1  UNL1        0.0843
     25 H          -1.2229    1.9052    0.6788 H       1  UNL1        0.0643
@<TRIPOS>BOND
     1     1     2    1
     2     2     3   ar
     3     3     4   ar
     4     4     5   ar
     5     5     6    1
     6     6     7    1
     7     7     8    1
     8     8     9   ar
     9     9    10   ar
    10    10    11   ar
    11    11    12   ar
    12    12    13   ar
    13    13    14   ar
    14    14    15   ar
    15    15    16   ar
    16     5    17   ar
    17    17     2   ar
    18    16     8   ar
    19    15    11   ar
    20     3    18    1
    21     6    19    1
    22     6    20    1
    23     7    21    1
    24     9    22    1
    25    10    23    1
    26    14    24    1
    27    16    25    1
@<TRIPOS>MOLECULE
51415143
 29 31 0 0 0
SMALL
GASTEIGER

@<TRIPOS>ATOM
      1 C           3.1340    1.3486    0.5757 C.3     1  UNL1        0.0143
      2 N           3.2283   -0.0245    0.1530 N.ar    1  UNL1       -0.3207
      3 C           4.3098   -0.7941    0.2221 C.ar    1  UNL1        0.1286
      4 CL          5.8956   -0.3722    0.8323 Cl      1  UNL1       -0.0622
      5 C           3.9858   -2.0506   -0.2867 C.ar    1  UNL1        0.0647
      6 N           2.6992   -1.9762   -0.6450 N.ar    1  UNL1       -0.2375
      7 C           2.2206   -0.7348   -0.3799 C.ar    1  UNL1        0.1276
      8 C           0.8267   -0.3191   -0.6578 C.3     1  UNL1        0.0674
      9 N          -0.0217   -0.5835    0.4832 N.pl3   1  UNL1       -0.3367
     10 C          -1.4147   -0.2574    0.4315 C.ar    1  UNL1        0.0281
     11 C          -2.1639   -0.5352    1.5513 C.ar    1  UNL1       -0.0397
     12 C          -3.5015   -0.2220    1.5015 C.ar    1  UNL1       -0.0442
     13 C          -4.0332    0.3619    0.3186 C.ar    1  UNL1        0.0394
     14 S          -5.6827    0.8608   -0.0279 S.2     1  UNL1        0.0116
     15 N          -5.2661    1.4418   -1.7304 N.ar    1  UNL1       -0.2176
     16 C          -3.8957    1.1845   -1.8405 C.ar    1  UNL1        0.0444
     17 C          -3.3058    0.6347   -0.7763 C.ar    1  UNL1        0.0106
     18 C          -1.9360    0.3038   -0.6997 C.ar    1  UNL1       -0.0311
     19 H           4.0454    1.6305    1.1586 H       1  UNL1        0.0456
     20 H           2.2284    1.4923    1.2213 H       1  UNL1        0.0456
     21 H           3.0407    2.0340   -0.3023 H       1  UNL1        0.0456
     22 H           4.6526   -2.8995   -0.3670 H       1  UNL1        0.0860
     23 H           0.4643   -0.8856   -1.5381 H       1  UNL1        0.0541
     24 H           0.8175    0.7658   -0.9293 H       1  UNL1        0.0541
     25 H           0.3680   -1.0077    1.3409 H       1  UNL1        0.1465
     26 H          -1.7710   -0.9766    2.4504 H       1  UNL1        0.0636
     27 H          -4.2007   -0.3826    2.2965 H       1  UNL1        0.0630
     28 H          -3.4671    1.4742   -2.8119 H       1  UNL1        0.0843
     29 H          -1.2569    0.4888   -1.5453 H       1  UNL1        0.0643
@<TRIPOS>BOND
     1     1     2    1
     2     2     3   ar
     3     3     4    1
     4     3     5   ar
     5     5     6   ar
     6     6     7   ar
     7     7     8    1
     8     8     9    1
     9     9    10    1
    10    10    11   ar
    11    11    12   ar
    12    12    13   ar
    13    13    14   ar
    14    14    15   ar
    15    15    16   ar
    16    16    17   ar
    17    17    18   ar
    18     7     2   ar
    19    18    10   ar
    20    17    13   ar
    21     1    19    1
    22     1    20    1
    23     1    21    1
    24     5    22    1
    25     8    23    1
    26     8    24    1
    27     9    25    1
    28    11    26    1
    29    12    27    1
    30    16    28    1
    31    18    29    1
@<TRIPOS>MOLECULE
CHEMBL4066698
 41 42 0 0 0
SMALL
GASTEIGER

@<TRIPOS>ATOM
      1 C          -1.7649    1.5598   -1.6582 C.3     1  UNL1       -0.0493
      2 C          -1.4574    2.1095   -0.2827 C.3     1  UNL1        0.0123
      3 N          -1.7271    1.1455    0.7563 N.am    1  UNL1       -0.2946
      4 C          -3.0265    1.0732    1.3785 C.3     1  UNL1        0.0412
      5 C          -3.9686    0.1659    0.7056 C.ar    1  UNL1       -0.0120
      6 C          -4.0598   -1.1637    1.0607 C.ar    1  UNL1       -0.0542
      7 C          -4.9537   -1.9808    0.4058 C.ar    1  UNL1       -0.0433
      8 C          -5.7305   -1.4659   -0.5780 C.ar    1  UNL1        0.0276
      9 N          -5.6236   -0.1575   -0.9095 N.ar    1  UNL1       -0.2629
     10 C          -4.7640    0.6733   -0.2950 C.ar    1  UNL1        0.0322
     11 C          -0.7197    0.2678    1.1672 C.2     1  UNL1        0.2535
     12 O          -0.9293   -0.5718    2.0636 O.2     1  UNL1       -0.2719
     13 C           0.6144    0.3228    0.5419 C.3     1  UNL1        0.1654
     14 O           1.5026   -0.6171    1.0632 O.3     1  UNL1       -0.4828
     15 C           2.7916   -0.6731    0.5639 C.ar    1  UNL1        0.1212
     16 C           3.2022    0.1816   -0.4328 C.ar    1  UNL1       -0.0197
     17 C           4.4779    0.1511   -0.9510 C.ar    1  UNL1       -0.0554
     18 C           5.3587   -0.7693   -0.4451 C.ar    1  UNL1       -0.0502
     19 C           6.7473   -0.8300   -0.9826 C.3     1  UNL1       -0.0397
     20 C           5.0008   -1.6442    0.5484 C.ar    1  UNL1       -0.0554
     21 C           3.7144   -1.5849    1.0434 C.ar    1  UNL1       -0.0197
     22 H          -2.7774    1.9102   -2.0077 H       1  UNL1        0.0245
     23 H          -1.0463    2.0323   -2.3655 H       1  UNL1        0.0245
     24 H          -1.6426    0.4807   -1.7425 H       1  UNL1        0.0245
     25 H          -0.4002    2.3777   -0.2334 H       1  UNL1        0.0462
     26 H          -2.1280    2.9814   -0.1332 H       1  UNL1        0.0462
     27 H          -2.9144    0.7511    2.4529 H       1  UNL1        0.0514
     28 H          -3.4286    2.1222    1.4089 H       1  UNL1        0.0514
     29 H          -3.4577   -1.6082    1.8398 H       1  UNL1        0.0622
     30 H          -5.0411   -3.0226    0.6673 H       1  UNL1        0.0633
     31 H          -6.4352   -2.0879   -1.1018 H       1  UNL1        0.0829
     32 H          -4.7161    1.7276   -0.6018 H       1  UNL1        0.0833
     33 H           0.5885    0.2045   -0.5559 H       1  UNL1        0.0795
     34 H           1.0422    1.3364    0.7642 H       1  UNL1        0.0795
     35 H           2.5282    0.9304   -0.8626 H       1  UNL1        0.0654
     36 H           4.7835    0.8457   -1.7489 H       1  UNL1        0.0621
     37 H           6.7679   -1.4519   -1.8783 H       1  UNL1        0.0278
     38 H           7.4032   -1.2432   -0.2073 H       1  UNL1        0.0278
     39 H           7.0937    0.1840   -1.2627 H       1  UNL1        0.0278
     40 H           5.6658   -2.3772    0.9667 H       1  UNL1        0.0621
     41 H           3.4300   -2.2860    1.8385 H       1  UNL1        0.0654
@<TRIPOS>BOND
     1     1     2    1
     2     2     3    1
     3     3     4    1
     4     4     5    1
     5     5     6   ar
     6     6     7   ar
     7     7     8   ar
     8     8     9   ar
     9     9    10   ar
    10     3    11   am
    11    11    12    2
    12    11    13    1
    13    13    14    1
    14    14    15    1
    15    15    16   ar
    16    16    17   ar
    17    17    18   ar
    18    18    19    1
    19    18    20   ar
    20    20    21   ar
    21    10     5   ar
    22    21    15   ar
    23     1    22    1
    24     1    23    1
    25     1    24    1
    26     2    25    1
    27     2    26    1
    28     4    27    1
    29     4    28    1
    30     6    29    1
    31     7    30    1
    32     8    31    1
    33    10    32    1
    34    13    33    1
    35    13    34    1
    36    16    35    1
    37    17    36    1
    38    19    37    1
    39    19    38    1
    40    19    39    1
    41    20    40    1
    42    21    41    1
@<TRIPOS>MOLECULE
1189567
 41 40 0 0 0
SMALL
GASTEIGER

@<TRIPOS>ATOM
      1 C           4.3590    0.4501   -0.9806 C.3     1  UNL1       -0.0653
      2 C           3.4672    0.0998    0.1769 C.3     1  UNL1       -0.0555
      3 C           1.9899    0.2903   -0.1728 C.3     1  UNL1       -0.0466
      4 C           1.2047   -0.0878    1.0511 C.3     1  UNL1        0.0014
      5 P          -0.5664    0.0663    0.8505 P.3     1  UNL1        0.0944
      6 O          -1.1534    0.4085    2.2243 O.2     1  UNL1       -0.3204
      7 C          -1.3414   -1.4925    0.3444 C.3     1  UNL1        0.0098
      8 C          -2.0717   -2.1608    1.4869 C.3     1  UNL1       -0.0557
      9 C          -0.3057   -2.4423   -0.2569 C.3     1  UNL1       -0.0466
     10 C          -1.0468   -3.7096   -0.6468 C.3     1  UNL1       -0.0646
     11 C          -1.0690    1.3476   -0.2803 C.3     1  UNL1        0.0098
     12 C          -2.5607    1.1837   -0.5516 C.3     1  UNL1       -0.0557
     13 C          -0.8596    2.7428    0.2654 C.3     1  UNL1       -0.0466
     14 C          -1.2937    3.7907   -0.7136 C.3     1  UNL1       -0.0646
     15 H           5.3243    0.8663   -0.5762 H       1  UNL1        0.0230
     16 H           4.6447   -0.4567   -1.5598 H       1  UNL1        0.0230
     17 H           3.9305    1.2248   -1.6266 H       1  UNL1        0.0230
     18 H           3.6672   -0.9115    0.5391 H       1  UNL1        0.0263
     19 H           3.6679    0.8046    1.0296 H       1  UNL1        0.0263
     20 H           1.8334    1.3424   -0.4605 H       1  UNL1        0.0269
     21 H           1.7979   -0.3287   -1.0489 H       1  UNL1        0.0269
     22 H           1.4527   -1.1323    1.3227 H       1  UNL1        0.0342
     23 H           1.5515    0.5562    1.8844 H       1  UNL1        0.0342
     24 H          -2.0908   -1.3304   -0.4822 H       1  UNL1        0.0375
     25 H          -2.9909   -2.6552    1.1306 H       1  UNL1        0.0237
     26 H          -1.3709   -2.8782    1.9828 H       1  UNL1        0.0237
     27 H          -2.3093   -1.3805    2.2461 H       1  UNL1        0.0237
     28 H           0.0902   -2.0094   -1.1838 H       1  UNL1        0.0269
     29 H           0.4636   -2.7234    0.4736 H       1  UNL1        0.0269
     30 H          -2.1258   -3.5076   -0.8176 H       1  UNL1        0.0230
     31 H          -0.5568   -4.1739   -1.5274 H       1  UNL1        0.0230
     32 H          -0.9765   -4.4480    0.1932 H       1  UNL1        0.0230
     33 H          -0.5493    1.2141   -1.2413 H       1  UNL1        0.0375
     34 H          -2.7460    0.8752   -1.6166 H       1  UNL1        0.0237
     35 H          -3.0091    0.3962    0.1010 H       1  UNL1        0.0237
     36 H          -3.1252    2.1167   -0.3081 H       1  UNL1        0.0237
     37 H          -1.3841    2.9119    1.2126 H       1  UNL1        0.0269
     38 H           0.2303    2.8734    0.4598 H       1  UNL1        0.0269
     39 H          -1.4125    3.3825   -1.7508 H       1  UNL1        0.0230
     40 H          -0.5243    4.5900   -0.7921 H       1  UNL1        0.0230
     41 H          -2.2351    4.2949   -0.3808 H       1  UNL1        0.0230
@<TRIPOS>BOND
     1     1     2    1
     2     2     3    1
     3     3     4    1
     4     4     5    1
     5     5     6    2
     6     5     7    1
     7     7     8    1
     8     7     9    1
     9     9    10    1
    10     5    11    1
    11    11    12    1
    12    11    13    1
    13    13    14    1
    14     1    15    1
    15     1    16    1
    16     1    17    1
    17     2    18    1
    18     2    19    1
    19     3    20    1
    20     3    21    1
    21     4    22    1
    22     4    23    1
    23     7    24    1
    24     8    25    1
    25     8    26    1
    26     8    27    1
    27     9    28    1
    28     9    29    1
    29    10    30    1
    30    10    31    1
    31    10    32    1
    32    11    33    1
    33    12    34    1
    34    12    35    1
    35    12    36    1
    36    13    37    1
    37    13    38    1
    38    14    39    1
    39    14    40    1
    40    14    41    1
@<TRIPOS>MOLECULE
884206
 35 36 0 0 0
SMALL
GASTEIGER

@<TRIPOS>ATOM
      1 C          -3.1088   -1.6840   -0.5967 C.3     1  UNL1       -0.0493
      2 C          -2.9122   -1.0505    0.7608 C.3     1  UNL1        0.0121
      3 N          -2.9024    0.3820    0.7291 N.am    1  UNL1       -0.2985
      4 C          -4.1212    1.1736    0.9007 C.3     1  UNL1        0.0121
      5 C          -4.7512    1.4177   -0.4345 C.3     1  UNL1       -0.0493
      6 C          -1.6964    1.0791    0.5281 C.2     1  UNL1        0.2394
      7 O          -1.6668    2.3460    0.5109 O.2     1  UNL1       -0.2706
      8 C          -0.4359    0.3257    0.3319 C.2     1  UNL1        0.0009
      9 C           0.7047    0.9556    0.1446 C.2     1  UNL1       -0.0496
     10 C           1.9566    0.2524   -0.0506 C.ar    1  UNL1       -0.0212
     11 C           2.1184   -1.1059   -0.0664 C.ar    1  UNL1       -0.0509
     12 C           3.3375   -1.7335   -0.2570 C.ar    1  UNL1       -0.0156
     13 C           4.4733   -0.9775   -0.4447 C.ar    1  UNL1        0.1663
     14 C           4.3590    0.3973   -0.4367 C.ar    1  UNL1        0.1668
     15 C           3.1304    0.9941   -0.2443 C.ar    1  UNL1       -0.0090
     16 O           5.6402    0.8966   -0.6457 O.3     1  UNL1       -0.4526
     17 C           6.5872   -0.1362   -0.3674 C.3     1  UNL1        0.2332
     18 O           5.8218   -1.2918   -0.6584 O.3     1  UNL1       -0.4526
     19 H          -4.2190   -1.7234   -0.7694 H       1  UNL1        0.0245
     20 H          -2.6564   -2.6796   -0.6374 H       1  UNL1        0.0245
     21 H          -2.6630   -0.9979   -1.3457 H       1  UNL1        0.0245
     22 H          -2.0322   -1.4967    1.2456 H       1  UNL1        0.0462
     23 H          -3.7787   -1.3541    1.4281 H       1  UNL1        0.0462
     24 H          -4.8080    0.6780    1.6187 H       1  UNL1        0.0462
     25 H          -3.8169    2.1455    1.3295 H       1  UNL1        0.0462
     26 H          -4.3737    0.6782   -1.1686 H       1  UNL1        0.0245
     27 H          -5.8528    1.3356   -0.3285 H       1  UNL1        0.0245
     28 H          -4.5457    2.4400   -0.7913 H       1  UNL1        0.0245
     29 H          -0.4408   -0.7391    0.3369 H       1  UNL1        0.0670
     30 H           0.6456    2.0478    0.1460 H       1  UNL1        0.0625
     31 H           1.2582   -1.7343    0.0762 H       1  UNL1        0.0625
     32 H           3.4442   -2.8051   -0.2660 H       1  UNL1        0.0655
     33 H           3.0313    2.0705   -0.2365 H       1  UNL1        0.0661
     34 H           6.8393   -0.0565    0.7068 H       1  UNL1        0.1166
     35 H           7.4344   -0.0496   -1.0470 H       1  UNL1        0.1166
@<TRIPOS>BOND
     1     1     2    1
     2     2     3    1
     3     3     4    1
     4     4     5    1
     5     3     6   am
     6     6     7    2
     7     6     8    1
     8     8     9    2
     9     9    10    1
    10    10    11   ar
    11    11    12   ar
    12    12    13   ar
    13    13    14   ar
    14    14    15   ar
    15    14    16    1
    16    16    17    1
    17    17    18    1
    18    15    10   ar
    19    18    13    1
    20     1    19    1
    21     1    20    1
    22     1    21    1
    23     2    22    1
    24     2    23    1
    25     4    24    1
    26     4    25    1
    27     5    26    1
    28     5    27    1
    29     5    28    1
    30     8    29    1
    31     9    30    1
    32    11    31    1
    33    12    32    1
    34    15    33    1
    35    17    34    1
    36    17    35    1
@<TRIPOS>MOLECULE
884193
 55 58 0 0 0
SMALL
GASTEIGER

@<TRIPOS>ATOM
      1 O          -0.0608    1.9816   -1.6746 O.2     1  UNL1       -0.2706
      2 C           0.1037    0.9386   -0.8362 C.2     1  UNL1        0.2399
      3 C           1.4686    0.5210   -0.9021 C.2     1  UNL1        0.0009
      4 C           2.1010   -0.4279   -0.2845 C.2     1  UNL1       -0.0496
      5 C           3.5417   -0.7412   -0.4638 C.ar    1  UNL1       -0.0212
      6 C           4.2834    0.0019   -1.3321 C.ar    1  UNL1       -0.0509
      7 C           5.6381   -0.3239   -1.4740 C.ar    1  UNL1       -0.0156
      8 C           6.1846   -1.3597   -0.7553 C.ar    1  UNL1        0.1663
      9 C           5.4076   -2.0842    0.1081 C.ar    1  UNL1        0.1668
     10 C           4.0751   -1.7962    0.2755 C.ar    1  UNL1       -0.0090
     11 O           6.2066   -3.0626    0.6990 O.3     1  UNL1       -0.4526
     12 C           7.5487   -2.6168    0.5454 C.3     1  UNL1        0.2332
     13 O           7.4609   -1.9037   -0.6855 O.3     1  UNL1       -0.4526
     14 N          -1.0371    0.5464   -0.1490 N.am    1  UNL1       -0.2919
     15 C          -1.1477   -0.5269    0.7806 C.3     1  UNL1        0.0266
     16 C          -2.2065   -1.4982    0.2488 C.3     1  UNL1       -0.0343
     17 C          -2.1831   -2.7781    1.0650 C.3     1  UNL1       -0.0514
     18 C          -2.0426   -2.4714    2.5430 C.3     1  UNL1       -0.0529
     19 C          -2.4527   -1.0456    2.8466 C.3     1  UNL1       -0.0514
     20 C          -1.6793   -0.0101    2.1136 C.3     1  UNL1       -0.0343
     21 C          -2.2587    1.3424   -0.4171 C.3     1  UNL1        0.0266
     22 C          -2.6408    1.1956   -1.8382 C.3     1  UNL1       -0.0343
     23 C          -3.0871    2.4986   -2.4703 C.3     1  UNL1       -0.0514
     24 C          -3.9683    3.3186   -1.5887 C.3     1  UNL1       -0.0529
     25 C          -3.5654    3.3384   -0.1315 C.3     1  UNL1       -0.0514
     26 C          -2.1385    2.7880   -0.0531 C.3     1  UNL1       -0.0343
     27 H           2.1622    1.0869   -1.6034 H       1  UNL1        0.0670
     28 H           1.5716   -1.0465    0.4140 H       1  UNL1        0.0625
     29 H           3.9532    0.8250   -1.9357 H       1  UNL1        0.0625
     30 H           6.2533    0.2492   -2.1571 H       1  UNL1        0.0655
     31 H           3.4356   -2.3476    0.9475 H       1  UNL1        0.0661
     32 H           7.7910   -1.9640    1.3901 H       1  UNL1        0.1166
     33 H           8.1967   -3.4860    0.4514 H       1  UNL1        0.1166
     34 H          -0.2724   -1.0821    0.9683 H       1  UNL1        0.0501
     35 H          -3.1974   -1.0533    0.4088 H       1  UNL1        0.0283
     36 H          -1.9880   -1.7029   -0.8105 H       1  UNL1        0.0283
     37 H          -1.3078   -3.3903    0.7728 H       1  UNL1        0.0266
     38 H          -3.0994   -3.3756    0.8939 H       1  UNL1        0.0266
     39 H          -1.0236   -2.6953    2.9222 H       1  UNL1        0.0265
     40 H          -2.7439   -3.1362    3.0847 H       1  UNL1        0.0265
     41 H          -3.5578   -0.9771    2.6626 H       1  UNL1        0.0266
     42 H          -2.3502   -0.9355    3.9640 H       1  UNL1        0.0266
     43 H          -2.2621    0.8992    2.0193 H       1  UNL1        0.0283
     44 H          -0.7742    0.2308    2.7278 H       1  UNL1        0.0283
     45 H          -3.1038    0.9235    0.1911 H       1  UNL1        0.0501
     46 H          -3.4599    0.4181   -1.9834 H       1  UNL1        0.0283
     47 H          -1.8106    0.8015   -2.4420 H       1  UNL1        0.0283
     48 H          -2.2526    3.0791   -2.8903 H       1  UNL1        0.0266
     49 H          -3.7128    2.1954   -3.3611 H       1  UNL1        0.0266
     50 H          -5.0384    3.0500   -1.7293 H       1  UNL1        0.0265
     51 H          -3.8824    4.3863   -1.9418 H       1  UNL1        0.0265
     52 H          -4.2051    2.6040    0.3981 H       1  UNL1        0.0266
     53 H          -3.6224    4.3292    0.3302 H       1  UNL1        0.0266
     54 H          -1.5399    3.3162   -0.8102 H       1  UNL1        0.0283
     55 H          -1.7105    2.9731    0.9483 H       1  UNL1        0.0283
@<TRIPOS>BOND
     1     1     2    2
     2     2     3    1
     3     3     4    2
     4     4     5    1
     5     5     6   ar
     6     6     7   ar
     7     7     8   ar
     8     8     9   ar
     9     9    10   ar
    10     9    11    1
    11    11    12    1
    12    12    13    1
    13     2    14   am
    14    14    15    1
    15    15    16    1
    16    16    17    1
    17    17    18    1
    18    18    19    1
    19    19    20    1
    20    14    21    1
    21    21    22    1
    22    22    23    1
    23    23    24    1
    24    24    25    1
    25    25    26    1
    26    10     5   ar
    27    20    15    1
    28    26    21    1
    29    13     8    1
    30     3    27    1
    31     4    28    1
    32     6    29    1
    33     7    30    1
    34    10    31    1
    35    12    32    1
    36    12    33    1
    37    15    34    1
    38    16    35    1
    39    16    36    1
    40    17    37    1
    41    17    38    1
    42    18    39    1
    43    18    40    1
    44    19    41    1
    45    19    42    1
    46    20    43    1
    47    20    44    1
    48    21    45    1
    49    22    46    1
    50    22    47    1
    51    23    48    1
    52    23    49    1
    53    24    50    1
    54    24    51    1
    55    25    52    1
    56    25    53    1
    57    26    54    1
    58    26    55    1
@<TRIPOS>MOLECULE
884182
 37 39 0 0 0
SMALL
GASTEIGER

@<TRIPOS>ATOM
      1 C          -2.1019   -3.5412   -1.0967 C.3     1  UNL1        0.0790
      2 O          -2.0111   -2.1977   -0.6595 O.3     1  UNL1       -0.4902
      3 C          -0.7619   -1.6110   -0.4809 C.ar    1  UNL1        0.1779
      4 C           0.3919   -2.3252   -0.7256 C.ar    1  UNL1        0.0750
      5 N           1.6014   -1.7179   -0.5399 N.ar    1  UNL1       -0.2319
      6 C           1.6798   -0.4414   -0.1245 C.ar    1  UNL1        0.1620
      7 C           3.0047    0.1717    0.0619 C.ar    1  UNL1        0.0192
      8 C           4.1427   -0.5587   -0.1880 C.ar    1  UNL1       -0.0510
      9 C           5.4030   -0.0332   -0.0296 C.ar    1  UNL1       -0.0611
     10 C           5.5432    1.2643    0.3921 C.ar    1  UNL1       -0.0617
     11 C           4.3996    2.0147    0.6486 C.ar    1  UNL1       -0.0611
     12 C           3.1398    1.4750    0.4855 C.ar    1  UNL1       -0.0510
     13 N           0.5536    0.2155    0.1012 N.ar    1  UNL1       -0.2089
     14 C          -0.6770   -0.2997   -0.0542 C.ar    1  UNL1        0.1674
     15 N          -1.8200    0.4981    0.2176 N.pl3   1  UNL1       -0.3078
     16 C          -2.8156    0.1800    1.2057 C.3     1  UNL1        0.0371
     17 C          -3.5497    1.4461    1.5497 C.3     1  UNL1        0.0634
     18 O          -4.1184    2.0824    0.4833 O.3     1  UNL1       -0.3767
     19 C          -3.5399    1.8404   -0.7341 C.3     1  UNL1        0.0634
     20 C          -2.0347    1.7246   -0.5300 C.3     1  UNL1        0.0371
     21 H          -3.1492   -3.7287   -1.4134 H       1  UNL1        0.0660
     22 H          -1.8476   -4.2675   -0.2913 H       1  UNL1        0.0660
     23 H          -1.4428   -3.7153   -1.9685 H       1  UNL1        0.0660
     24 H           0.3468   -3.3517   -1.0598 H       1  UNL1        0.0869
     25 H           4.0161   -1.5851   -0.5215 H       1  UNL1        0.0625
     26 H           6.2977   -0.6139   -0.2282 H       1  UNL1        0.0618
     27 H           6.5326    1.6599    0.5109 H       1  UNL1        0.0618
     28 H           4.5168    3.0204    0.9753 H       1  UNL1        0.0618
     29 H           2.2347    2.0667    0.6878 H       1  UNL1        0.0625
     30 H          -2.3563   -0.1699    2.1728 H       1  UNL1        0.0487
     31 H          -3.5402   -0.5683    0.8882 H       1  UNL1        0.0487
     32 H          -2.9124    2.1362    2.1623 H       1  UNL1        0.0575
     33 H          -4.3824    1.1480    2.2469 H       1  UNL1        0.0575
     34 H          -3.8986    0.8586   -1.1001 H       1  UNL1        0.0575
     35 H          -3.6896    2.6600   -1.4574 H       1  UNL1        0.0575
     36 H          -1.6052    2.6052   -0.0429 H       1  UNL1        0.0487
     37 H          -1.5501    1.6585   -1.5438 H       1  UNL1        0.0487
@<TRIPOS>BOND
     1     1     2    1
     2     2     3    1
     3     3     4   ar
     4     4     5   ar
     5     5     6   ar
     6     6     7    1
     7     7     8   ar
     8     8     9   ar
     9     9    10   ar
    10    10    11   ar
    11    11    12   ar
    12     6    13   ar
    13    13    14   ar
    14    14    15    1
    15    15    16    1
    16    16    17    1
    17    17    18    1
    18    18    19    1
    19    19    20    1
    20    14     3   ar
    21    20    15    1
    22    12     7   ar
    23     1    21    1
    24     1    22    1
    25     1    23    1
    26     4    24    1
    27     8    25    1
    28     9    26    1
    29    10    27    1
    30    11    28    1
    31    12    29    1
    32    16    30    1
    33    16    31    1
    34    17    32    1
    35    17    33    1
    36    19    34    1
    37    19    35    1
    38    20    36    1
    39    20    37    1
@<TRIPOS>MOLECULE
CHEMBL4102011
 45 46 0 0 0
SMALL
GASTEIGER

@<TRIPOS>ATOM
      1 C           6.9336   -0.6406   -0.7556 C.3     1  UNL1       -0.0397
      2 C           5.5633   -0.5271   -0.1926 C.ar    1  UNL1       -0.0502
      3 C           4.5000   -0.6525   -1.0394 C.ar    1  UNL1       -0.0554
      4 C           3.2147   -0.5523   -0.5489 C.ar    1  UNL1       -0.0197
      5 C           2.9413   -0.3270    0.7830 C.ar    1  UNL1        0.1212
      6 O           1.6530   -0.2232    1.2969 O.3     1  UNL1       -0.4828
      7 C           0.5798   -0.3663    0.3614 C.3     1  UNL1        0.1654
      8 C          -0.7133   -0.2339    1.0054 C.2     1  UNL1        0.2539
      9 O          -0.7462    0.0327    2.2740 O.2     1  UNL1       -0.2718
     10 N          -2.0049   -0.3670    0.3807 N.am    1  UNL1       -0.2889
     11 C          -3.1749   -0.1648    1.1850 C.3     1  UNL1        0.0465
     12 C          -3.6916    1.1659    1.3046 C.ar    1  UNL1        0.0071
     13 C          -3.4604    2.2466    2.0522 C.ar    1  UNL1       -0.0500
     14 C          -4.1911    3.3709    1.9177 C.ar    1  UNL1       -0.0544
     15 C          -5.1866    3.4150    1.0045 C.ar    1  UNL1       -0.0240
     16 S          -5.0507    1.6844    0.2827 S.2     1  UNL1       -0.1000
     17 C          -2.0760   -0.7363   -0.9942 C.3     1  UNL1        0.0295
     18 C          -1.3660    0.2859   -1.8826 C.3     1  UNL1       -0.0440
     19 C          -3.4814   -0.8590   -1.4969 C.3     1  UNL1       -0.0440
     20 C          -1.4269   -2.0971   -1.2502 C.3     1  UNL1       -0.0440
     21 C           4.0432   -0.2008    1.6378 C.ar    1  UNL1       -0.0197
     22 C           5.3255   -0.3013    1.1450 C.ar    1  UNL1       -0.0554
     23 H           7.3438   -1.6725   -0.6714 H       1  UNL1        0.0278
     24 H           6.9053   -0.2646   -1.7916 H       1  UNL1        0.0278
     25 H           7.5964    0.0763   -0.1961 H       1  UNL1        0.0278
     26 H           4.5935   -0.8317   -2.1086 H       1  UNL1        0.0621
     27 H           2.3430   -0.6482   -1.2119 H       1  UNL1        0.0654
     28 H           0.7093   -1.2769   -0.2024 H       1  UNL1        0.0795
     29 H           0.7396    0.5091   -0.3347 H       1  UNL1        0.0795
     30 H          -3.9677   -0.8648    0.8759 H       1  UNL1        0.0519
     31 H          -2.8738   -0.5760    2.2190 H       1  UNL1        0.0519
     32 H          -2.6189    2.1922    2.8157 H       1  UNL1        0.0626
     33 H          -4.0287    4.3164    2.5342 H       1  UNL1        0.0623
     34 H          -5.8959    4.1025    0.6757 H       1  UNL1        0.0693
     35 H          -2.0194    0.4471   -2.7761 H       1  UNL1        0.0250
     36 H          -1.2456    1.2457   -1.3604 H       1  UNL1        0.0250
     37 H          -0.4313   -0.1773   -2.2353 H       1  UNL1        0.0250
     38 H          -4.0556   -1.5519   -0.8888 H       1  UNL1        0.0250
     39 H          -3.9683    0.0653   -1.7972 H       1  UNL1        0.0250
     40 H          -3.3587   -1.4231   -2.5022 H       1  UNL1        0.0250
     41 H          -0.6081   -2.0588   -1.9664 H       1  UNL1        0.0250
     42 H          -1.2187   -2.5976   -0.2981 H       1  UNL1        0.0250
     43 H          -2.2219   -2.7335   -1.7351 H       1  UNL1        0.0250
     44 H           3.8951   -0.0233    2.6926 H       1  UNL1        0.0654
     45 H           6.2023   -0.2066    1.7906 H       1  UNL1        0.0621
@<TRIPOS>BOND
     1     1     2    1
     2     2     3   ar
     3     3     4   ar
     4     4     5   ar
     5     5     6    1
     6     6     7    1
     7     7     8    1
     8     8     9    2
     9     8    10   am
    10    10    11    1
    11    11    12    1
    12    12    13   ar
    13    13    14   ar
    14    14    15   ar
    15    15    16   ar
    16    10    17    1
    17    17    18    1
    18    17    19    1
    19    17    20    1
    20     5    21   ar
    21    21    22   ar
    22    22     2   ar
    23    16    12   ar
    24     1    23    1
    25     1    24    1
    26     1    25    1
    27     3    26    1
    28     4    27    1
    29     7    28    1
    30     7    29    1
    31    11    30    1
    32    11    31    1
    33    13    32    1
    34    14    33    1
    35    15    34    1
    36    18    35    1
    37    18    36    1
    38    18    37    1
    39    19    38    1
    40    19    39    1
    41    19    40    1
    42    20    41    1
    43    20    42    1
    44    20    43    1
    45    21    44    1
    46    22    45    1
@<TRIPOS>MOLECULE
CHEMBL4069157
 45 46 0 0 0
SMALL
GASTEIGER

@<TRIPOS>ATOM
      1 C          -3.5371   -2.5725   -2.1687 C.3     1  UNL1       -0.0493
      2 C          -3.3740   -2.1115   -0.7505 C.3     1  UNL1        0.0123
      3 N          -2.1603   -1.2790   -0.5851 N.am    1  UNL1       -0.2937
      4 C          -2.3304    0.1233   -0.7537 C.3     1  UNL1        0.0460
      5 C          -2.7271    0.7926    0.5238 C.ar    1  UNL1        0.0071
      6 C          -2.0505    1.3778    1.5060 C.ar    1  UNL1       -0.0500
      7 C          -2.7009    1.8972    2.5613 C.ar    1  UNL1       -0.0544
      8 C          -4.0627    1.8018    2.5842 C.ar    1  UNL1       -0.0240
      9 S          -4.4019    0.9310    1.0243 S.2     1  UNL1       -0.1000
     10 C          -0.9889   -1.9768   -0.2558 C.2     1  UNL1        0.2592
     11 O          -1.0735   -3.2658   -0.0893 O.2     1  UNL1       -0.2712
     12 C           0.3512   -1.4179   -0.0743 C.3     1  UNL1        0.1801
     13 C           1.3268   -2.1002   -1.0459 C.3     1  UNL1       -0.0165
     14 C           0.8733   -1.6894    1.3272 C.3     1  UNL1       -0.0165
     15 O           0.4261   -0.0586   -0.2920 O.3     1  UNL1       -0.4770
     16 C           1.5871    0.6997   -0.1925 C.ar    1  UNL1        0.1220
     17 C           2.0053    1.2979    0.9761 C.ar    1  UNL1       -0.0196
     18 C           3.1808    2.0453    1.0043 C.ar    1  UNL1       -0.0554
     19 C           3.9617    2.2138   -0.1202 C.ar    1  UNL1       -0.0502
     20 C           5.2162    3.0107   -0.0923 C.3     1  UNL1       -0.0397
     21 C           3.5548    1.6203   -1.2963 C.ar    1  UNL1       -0.0554
     22 C           2.3914    0.8848   -1.3099 C.ar    1  UNL1       -0.0196
     23 H          -4.0664   -3.5578   -2.1494 H       1  UNL1        0.0245
     24 H          -2.5483   -2.7324   -2.6712 H       1  UNL1        0.0245
     25 H          -4.1286   -1.8717   -2.7828 H       1  UNL1        0.0245
     26 H          -3.3130   -2.9935   -0.0998 H       1  UNL1        0.0462
     27 H          -4.2354   -1.5167   -0.4505 H       1  UNL1        0.0462
     28 H          -3.1857    0.3501   -1.4726 H       1  UNL1        0.0519
     29 H          -1.4875    0.6626   -1.1659 H       1  UNL1        0.0519
     30 H          -0.9296    1.4475    1.4621 H       1  UNL1        0.0626
     31 H          -2.2034    2.4116    3.4393 H       1  UNL1        0.0623
     32 H          -4.8298    2.1253    3.2944 H       1  UNL1        0.0693
     33 H           1.0700   -1.8207   -2.0900 H       1  UNL1        0.0273
     34 H           1.2578   -3.1932   -0.8632 H       1  UNL1        0.0273
     35 H           2.3381   -1.6900   -0.8455 H       1  UNL1        0.0273
     36 H           1.9088   -1.2612    1.3583 H       1  UNL1        0.0273
     37 H           0.9732   -2.7771    1.4397 H       1  UNL1        0.0273
     38 H           0.2304   -1.2548    2.0931 H       1  UNL1        0.0273
     39 H           1.4027    1.1757    1.8794 H       1  UNL1        0.0654
     40 H           3.4905    2.5085    1.9396 H       1  UNL1        0.0621
     41 H           5.1241    3.8031   -0.8808 H       1  UNL1        0.0278
     42 H           5.3736    3.4434    0.9084 H       1  UNL1        0.0278
     43 H           6.0720    2.3663   -0.3826 H       1  UNL1        0.0278
     44 H           4.1638    1.7440   -2.1996 H       1  UNL1        0.0621
     45 H           2.0553    0.4062   -2.2410 H       1  UNL1        0.0654
@<TRIPOS>BOND
     1     1     2    1
     2     2     3    1
     3     3     4    1
     4     4     5    1
     5     5     6   ar
     6     6     7   ar
     7     7     8   ar
     8     8     9   ar
     9     3    10   am
    10    10    11    2
    11    10    12    1
    12    12    13    1
    13    12    14    1
    14    12    15    1
    15    15    16    1
    16    16    17   ar
    17    17    18   ar
    18    18    19   ar
    19    19    20    1
    20    19    21   ar
    21    21    22   ar
    22     9     5   ar
    23    22    16   ar
    24     1    23    1
    25     1    24    1
    26     1    25    1
    27     2    26    1
    28     2    27    1
    29     4    28    1
    30     4    29    1
    31     6    30    1
    32     7    31    1
    33     8    32    1
    34    13    33    1
    35    13    34    1
    36    13    35    1
    37    14    36    1
    38    14    37    1
    39    14    38    1
    40    17    39    1
    41    18    40    1
    42    20    41    1
    43    20    42    1
    44    20    43    1
    45    21    44    1
    46    22    45    1
@<TRIPOS>MOLECULE
884239
 45 47 0 0 0
SMALL
GASTEIGER

@<TRIPOS>ATOM
      1 C           5.8897   -2.6103   -0.5320 C.3     1  UNL1        0.0788
      2 O           4.8270   -2.5694    0.3495 O.3     1  UNL1       -0.4951
      3 C           3.8525   -1.6024    0.3909 C.ar    1  UNL1        0.1201
      4 C           2.8215   -1.6718    1.3356 C.ar    1  UNL1       -0.0192
      5 C           1.8345   -0.7106    1.3916 C.ar    1  UNL1       -0.0462
      6 C           1.8228    0.3544    0.5222 C.ar    1  UNL1        0.0375
      7 C           0.8069    1.3802    0.5536 C.2     1  UNL1        0.2521
      8 O           1.2135    2.5620    0.8056 O.2     1  UNL1       -0.2696
      9 N          -0.5777    1.1817    0.3305 N.am    1  UNL1       -0.2490
     10 C          -1.4468    2.2962    0.3972 C.ar    1  UNL1        0.1279
     11 C          -1.6715    3.0399   -0.7388 C.ar    1  UNL1       -0.0213
     12 C          -2.5100    4.1412   -0.7540 C.ar    1  UNL1       -0.0571
     13 C          -3.1461    4.5094    0.4144 C.ar    1  UNL1       -0.0435
     14 C          -2.9091    3.7560    1.5364 C.ar    1  UNL1        0.0297
     15 N          -2.0878    2.6943    1.5081 N.ar    1  UNL1       -0.2399
     16 C          -1.0373   -0.1621    0.0508 C.3     1  UNL1        0.0328
     17 C          -1.6670   -0.2449   -1.3451 C.3     1  UNL1       -0.0338
     18 C          -1.7836   -1.7240   -1.6718 C.3     1  UNL1       -0.0514
     19 C          -2.6843   -2.4020   -0.6737 C.3     1  UNL1       -0.0529
     20 C          -2.3113   -2.1093    0.7477 C.3     1  UNL1       -0.0514
     21 C          -2.0677   -0.6424    1.0214 C.3     1  UNL1       -0.0338
     22 C           2.8233    0.4288   -0.4002 C.ar    1  UNL1       -0.0462
     23 C           3.8343   -0.5390   -0.4712 C.ar    1  UNL1       -0.0192
     24 H           6.8498   -2.3015   -0.0203 H       1  UNL1        0.0660
     25 H           5.6898   -2.0311   -1.4301 H       1  UNL1        0.0660
     26 H           6.0561   -3.6941   -0.7965 H       1  UNL1        0.0660
     27 H           2.8590   -2.5148    2.0001 H       1  UNL1        0.0654
     28 H           1.0602   -0.8186    2.1480 H       1  UNL1        0.0626
     29 H          -1.1795    2.7609   -1.6536 H       1  UNL1        0.0652
     30 H          -2.6933    4.7341   -1.6467 H       1  UNL1        0.0619
     31 H          -3.8161    5.3809    0.4199 H       1  UNL1        0.0633
     32 H          -3.3997    4.0321    2.4508 H       1  UNL1        0.0830
     33 H          -0.2028   -0.8891    0.0476 H       1  UNL1        0.0505
     34 H          -1.0127    0.2450   -2.0851 H       1  UNL1        0.0283
     35 H          -2.7034    0.1530   -1.3270 H       1  UNL1        0.0283
     36 H          -0.7653   -2.1501   -1.6316 H       1  UNL1        0.0266
     37 H          -2.2438   -1.8015   -2.6762 H       1  UNL1        0.0266
     38 H          -3.7284   -2.0635   -0.8457 H       1  UNL1        0.0265
     39 H          -2.6414   -3.4821   -0.8273 H       1  UNL1        0.0265
     40 H          -1.4092   -2.6638    1.0701 H       1  UNL1        0.0266
     41 H          -3.1565   -2.4339    1.3911 H       1  UNL1        0.0266
     42 H          -3.0428   -0.1278    0.8887 H       1  UNL1        0.0283
     43 H          -1.7480   -0.5649    2.0792 H       1  UNL1        0.0283
     44 H           2.8213    1.2715   -1.0945 H       1  UNL1        0.0626
     45 H           4.5811   -0.3964   -1.2283 H       1  UNL1        0.0654
@<TRIPOS>BOND
     1     1     2    1
     2     2     3    1
     3     3     4   ar
     4     4     5   ar
     5     5     6   ar
     6     6     7    1
     7     7     8    2
     8     7     9   am
     9     9    10    1
    10    10    11   ar
    11    11    12   ar
    12    12    13   ar
    13    13    14   ar
    14    14    15   ar
    15     9    16    1
    16    16    17    1
    17    17    18    1
    18    18    19    1
    19    19    20    1
    20    20    21    1
    21     6    22   ar
    22    22    23   ar
    23    23     3   ar
    24    15    10   ar
    25    21    16    1
    26     1    24    1
    27     1    25    1
    28     1    26    1
    29     4    27    1
    30     5    28    1
    31    11    29    1
    32    12    30    1
    33    13    31    1
    34    14    32    1
    35    16    33    1
    36    17    34    1
    37    17    35    1
    38    18    36    1
    39    18    37    1
    40    19    38    1
    41    19    39    1
    42    20    40    1
    43    20    41    1
    44    21    42    1
    45    21    43    1
    46    22    44    1
    47    23    45    1
@<TRIPOS>MOLECULE
884170
 35 38 0 0 0
SMALL
GASTEIGER

@<TRIPOS>ATOM
      1 C          -3.2904    1.5203   -1.2251 C.3     1  UNL1       -0.0222
      2 C          -3.2014    0.6038   -0.0355 C.3     1  UNL1        0.1390
      3 O          -4.2155   -0.3581   -0.1646 O.3     1  UNL1       -0.4520
      4 C          -3.6708   -1.6261   -0.1658 C.2     1  UNL1        0.3448
      5 O          -4.2807   -2.7314   -0.2643 O.2     1  UNL1       -0.2448
      6 C          -2.2408   -1.4291   -0.0295 C.2     1  UNL1        0.1217
      7 C          -1.9472   -0.1480    0.0475 C.2     1  UNL1        0.0652
      8 N          -0.5539    0.2151    0.1872 N.pl3   1  UNL1       -0.3217
      9 C          -0.2603    1.4759    0.8176 C.3     1  UNL1        0.0167
     10 C           1.1095    1.9895    0.5809 C.3     1  UNL1       -0.0116
     11 C           2.1137    0.9600    0.2855 C.ar    1  UNL1       -0.0409
     12 C           3.4495    1.3005    0.4436 C.ar    1  UNL1       -0.0582
     13 C           4.4740    0.3932    0.1880 C.ar    1  UNL1       -0.0615
     14 C           4.1495   -0.8649   -0.2295 C.ar    1  UNL1       -0.0614
     15 C           2.8105   -1.1945   -0.3842 C.ar    1  UNL1       -0.0565
     16 C           1.7988   -0.3027   -0.1332 C.ar    1  UNL1       -0.0235
     17 C           0.4146   -0.7154   -0.3164 C.3     1  UNL1        0.0558
     18 C           0.1655   -2.0219    0.4514 C.3     1  UNL1        0.0334
     19 C          -1.1812   -2.4674    0.0250 C.2     1  UNL1        0.1737
     20 O          -1.4242   -3.6431   -0.2737 O.2     1  UNL1       -0.2917
     21 H          -2.8680    1.0604   -2.1217 H       1  UNL1        0.0269
     22 H          -4.3900    1.6589   -1.4320 H       1  UNL1        0.0269
     23 H          -2.9078    2.5418   -1.0171 H       1  UNL1        0.0269
     24 H          -3.4218    1.1670    0.8963 H       1  UNL1        0.0795
     25 H          -0.3985    1.3311    1.9161 H       1  UNL1        0.0467
     26 H          -0.9860    2.2172    0.4001 H       1  UNL1        0.0467
     27 H           1.4919    2.5752    1.4680 H       1  UNL1        0.0328
     28 H           1.1266    2.7233   -0.2779 H       1  UNL1        0.0328
     29 H           3.7521    2.2929    0.7746 H       1  UNL1        0.0620
     30 H           5.4998    0.7016    0.3245 H       1  UNL1        0.0618
     31 H           4.9493   -1.5650   -0.4264 H       1  UNL1        0.0618
     32 H           2.6308   -2.2213   -0.7222 H       1  UNL1        0.0621
     33 H           0.2538   -0.9684   -1.3875 H       1  UNL1        0.0554
     34 H           0.9369   -2.7670    0.2713 H       1  UNL1        0.0367
     35 H           0.1117   -1.7033    1.5304 H       1  UNL1        0.0367
@<TRIPOS>BOND
     1     1     2    1
     2     2     3    1
     3     3     4    1
     4     4     5    2
     5     4     6    1
     6     6     7    2
     7     7     8    1
     8     8     9    1
     9     9    10    1
    10    10    11    1
    11    11    12   ar
    12    12    13   ar
    13    13    14   ar
    14    14    15   ar
    15    15    16   ar
    16    16    17    1
    17    17    18    1
    18    18    19    1
    19    19    20    2
    20     7     2    1
    21    17     8    1
    22    19     6    1
    23    16    11   ar
    24     1    21    1
    25     1    22    1
    26     1    23    1
    27     2    24    1
    28     9    25    1
    29     9    26    1
    30    10    27    1
    31    10    28    1
    32    12    29    1
    33    13    30    1
    34    14    31    1
    35    15    32    1
    36    17    33    1
    37    18    34    1
    38    18    35    1
@<TRIPOS>MOLECULE
CHEMBL463097
 56 57 0 0 0
SMALL
GASTEIGER

@<TRIPOS>ATOM
      1 C          -7.6562   -0.4720    0.8121 C.2     1  UNL1       -0.1023
      2 C          -6.8111    0.4213    0.3334 C.2     1  UNL1       -0.0868
      3 C          -5.7191    1.0120    1.1541 C.3     1  UNL1       -0.0095
      4 C          -4.3971    0.6870    0.5050 C.ar    1  UNL1       -0.0365
      5 C          -3.7087   -0.4570    0.8258 C.ar    1  UNL1       -0.0126
      6 C          -2.4900   -0.8106    0.2640 C.ar    1  UNL1        0.1655
      7 O          -1.8243   -1.9906    0.6240 O.3     1  UNL1       -0.4913
      8 C          -2.4097   -2.8469    1.5875 C.3     1  UNL1        0.0790
      9 C          -1.9567    0.0477   -0.6666 C.ar    1  UNL1        0.2041
     10 O          -0.7684   -0.2475   -1.2481 O.3     1  UNL1       -0.4792
     11 C           0.5060    0.1291   -0.7801 C.3     1  UNL1        0.1276
     12 C           1.1103    1.0235   -1.8424 C.3     1  UNL1       -0.0250
     13 C           1.3818   -1.0461   -0.4602 C.3     1  UNL1        0.1167
     14 O           1.6042   -1.8574   -1.5728 O.3     1  UNL1       -0.3835
     15 C           2.7217   -0.5482   -0.0221 C.ar    1  UNL1       -0.0120
     16 C           2.9949    0.7314    0.3478 C.ar    1  UNL1       -0.0523
     17 C           4.2775    1.0691    0.7318 C.ar    1  UNL1       -0.0160
     18 C           5.3114    0.1650    0.7607 C.ar    1  UNL1        0.1615
     19 O           6.5976    0.5149    1.1485 O.3     1  UNL1       -0.4915
     20 C           6.8320    1.8576    1.5242 C.3     1  UNL1        0.0790
     21 C           5.0564   -1.1348    0.3904 C.ar    1  UNL1        0.1618
     22 O           6.0653   -2.1113    0.3962 O.3     1  UNL1       -0.4914
     23 C           5.7616   -3.4345    0.0087 C.3     1  UNL1        0.0790
     24 C           3.7797   -1.4664    0.0092 C.ar    1  UNL1       -0.0106
     25 C          -2.6161    1.2022   -1.0137 C.ar    1  UNL1        0.1655
     26 O          -2.0863    2.0774   -1.9533 O.3     1  UNL1       -0.4913
     27 C          -2.7028    3.2639   -2.3501 C.3     1  UNL1        0.0790
     28 C          -3.8453    1.5357   -0.4313 C.ar    1  UNL1       -0.0126
     29 H          -7.5786   -0.8063    1.8310 H       1  UNL1        0.0532
     30 H          -8.4347   -0.8789    0.1909 H       1  UNL1        0.0532
     31 H          -6.9049    0.7454   -0.6941 H       1  UNL1        0.0570
     32 H          -5.8332    2.1097    1.1205 H       1  UNL1        0.0355
     33 H          -5.7592    0.5956    2.1787 H       1  UNL1        0.0355
     34 H          -4.1177   -1.1377    1.5547 H       1  UNL1        0.0658
     35 H          -3.4662   -3.0641    1.2937 H       1  UNL1        0.0660
     36 H          -2.4562   -2.3361    2.5643 H       1  UNL1        0.0660
     37 H          -1.8189   -3.7823    1.6020 H       1  UNL1        0.0660
     38 H           0.3432    0.7044    0.1419 H       1  UNL1        0.0760
     39 H           2.1992    0.8606   -1.9768 H       1  UNL1        0.0266
     40 H           0.5670    0.8820   -2.8247 H       1  UNL1        0.0266
     41 H           0.8696    2.0699   -1.5604 H       1  UNL1        0.0266
     42 H           0.9095   -1.6362    0.3229 H       1  UNL1        0.0681
     43 H           1.5414   -1.3580   -2.4161 H       1  UNL1        0.2104
     44 H           2.1987    1.4649    0.3360 H       1  UNL1        0.0622
     45 H           4.4800    2.1082    1.0275 H       1  UNL1        0.0655
     46 H           6.5568    2.4916    0.6406 H       1  UNL1        0.0660
     47 H           6.1668    2.1600    2.3591 H       1  UNL1        0.0660
     48 H           7.8797    1.9922    1.8365 H       1  UNL1        0.0660
     49 H           5.6107   -3.4342   -1.1020 H       1  UNL1        0.0660
     50 H           4.8676   -3.8301    0.5383 H       1  UNL1        0.0660
     51 H           6.6336   -4.0748    0.2471 H       1  UNL1        0.0660
     52 H           3.5728   -2.4845   -0.2826 H       1  UNL1        0.0659
     53 H          -3.1391    3.8316   -1.4775 H       1  UNL1        0.0660
     54 H          -3.5510    3.1079   -3.0604 H       1  UNL1        0.0660
     55 H          -1.9623    3.9596   -2.7959 H       1  UNL1        0.0660
     56 H          -4.3830    2.4251   -0.6790 H       1  UNL1        0.0658
@<TRIPOS>BOND
     1     1     2    2
     2     2     3    1
     3     3     4    1
     4     4     5   ar
     5     5     6   ar
     6     6     7    1
     7     7     8    1
     8     6     9   ar
     9     9    10    1
    10    10    11    1
    11    11    12    1
    12    11    13    1
    13    13    14    1
    14    13    15    1
    15    15    16   ar
    16    16    17   ar
    17    17    18   ar
    18    18    19    1
    19    19    20    1
    20    18    21   ar
    21    21    22    1
    22    22    23    1
    23    21    24   ar
    24     9    25   ar
    25    25    26    1
    26    26    27    1
    27    25    28   ar
    28    28     4   ar
    29    24    15   ar
    30     1    29    1
    31     1    30    1
    32     2    31    1
    33     3    32    1
    34     3    33    1
    35     5    34    1
    36     8    35    1
    37     8    36    1
    38     8    37    1
    39    11    38    1
    40    12    39    1
    41    12    40    1
    42    12    41    1
    43    13    42    1
    44    14    43    1
    45    16    44    1
    46    17    45    1
    47    20    46    1
    48    20    47    1
    49    20    48    1
    50    23    49    1
    51    23    50    1
    52    23    51    1
    53    24    52    1
    54    27    53    1
    55    27    54    1
    56    27    55    1
    57    28    56    1
@<TRIPOS>MOLECULE
CHEMBL4065676
 58 59 0 0 0
SMALL
GASTEIGER

@<TRIPOS>ATOM
      1 C          -6.4501   -1.7685    0.4873 C.2     1  UNL1       -0.1023
      2 C          -5.4124   -1.7784   -0.3282 C.2     1  UNL1       -0.0868
      3 C          -5.0841   -0.6035   -1.2090 C.3     1  UNL1       -0.0095
      4 C          -3.7490   -0.0500   -0.9303 C.ar    1  UNL1       -0.0365
      5 C          -3.5973    0.9468    0.0084 C.ar    1  UNL1       -0.0126
      6 C          -2.3816    1.5159    0.3251 C.ar    1  UNL1        0.1655
      7 O          -2.2681    2.5248    1.2825 O.3     1  UNL1       -0.4913
      8 C          -3.4618    2.9388    1.9173 C.3     1  UNL1        0.0790
      9 C          -1.2251    1.0703   -0.3321 C.ar    1  UNL1        0.2042
     10 O          -0.0481    1.6811    0.0333 O.3     1  UNL1       -0.4781
     11 C           0.8241    1.2733    1.0580 C.3     1  UNL1        0.1386
     12 C           0.6988    2.1783    2.2828 C.3     1  UNL1       -0.0239
     13 C           2.2569    1.1992    0.7102 C.3     1  UNL1        0.1644
     14 O           2.9818    0.7698    1.8733 O.3     1  UNL1       -0.4530
     15 C           3.9326    1.5368    2.5101 C.2     1  UNL1        0.3046
     16 C           4.6462    1.0543    3.6973 C.3     1  UNL1        0.0333
     17 O           4.1851    2.6790    2.0499 O.2     1  UNL1       -0.2511
     18 C           2.6020    0.3482   -0.4530 C.ar    1  UNL1       -0.0000
     19 C           2.8784    0.8680   -1.6982 C.ar    1  UNL1       -0.0513
     20 C           3.2139    0.0600   -2.7750 C.ar    1  UNL1       -0.0161
     21 C           3.2846   -1.3097   -2.6406 C.ar    1  UNL1        0.1585
     22 O           3.6218   -2.1401   -3.7166 O.3     1  UNL1       -0.5033
     23 C           3.0098   -1.8393   -1.4001 C.ar    1  UNL1        0.1616
     24 O           3.0843   -3.2275   -1.2753 O.3     1  UNL1       -0.4914
     25 C           2.8045   -3.7824   -0.0057 C.3     1  UNL1        0.0790
     26 C           2.6726   -1.0213   -0.3191 C.ar    1  UNL1       -0.0095
     27 C          -1.3703    0.0781   -1.2677 C.ar    1  UNL1        0.1655
     28 O          -0.2055   -0.3563   -1.9178 O.3     1  UNL1       -0.4913
     29 C          -0.3622   -1.3781   -2.8853 C.3     1  UNL1        0.0790
     30 C          -2.6033   -0.4752   -1.5656 C.ar    1  UNL1       -0.0126
     31 H          -6.6823   -2.6078    1.1146 H       1  UNL1        0.0532
     32 H          -7.0778   -0.8977    0.5233 H       1  UNL1        0.0532
     33 H          -4.7913   -2.6767   -0.3437 H       1  UNL1        0.0570
     34 H          -5.0883   -1.0116   -2.2574 H       1  UNL1        0.0355
     35 H          -5.8765    0.1510   -1.1427 H       1  UNL1        0.0355
     36 H          -4.5054    1.2912    0.5178 H       1  UNL1        0.0658
     37 H          -3.2187    3.8988    2.4605 H       1  UNL1        0.0660
     38 H          -3.8414    2.2031    2.6501 H       1  UNL1        0.0660
     39 H          -4.2528    3.2337    1.1734 H       1  UNL1        0.0660
     40 H           0.4675    0.2778    1.4170 H       1  UNL1        0.0771
     41 H           1.6229    2.2132    2.8896 H       1  UNL1        0.0266
     42 H           0.4710    3.2287    2.0061 H       1  UNL1        0.0266
     43 H          -0.1784    1.8465    2.9124 H       1  UNL1        0.0266
     44 H           2.6402    2.2471    0.5196 H       1  UNL1        0.0823
     45 H           5.7050    0.8395    3.3854 H       1  UNL1        0.0342
     46 H           4.6694    1.8094    4.5347 H       1  UNL1        0.0342
     47 H           4.1667    0.1501    4.1315 H       1  UNL1        0.0342
     48 H           2.8243    1.9414   -1.8087 H       1  UNL1        0.0623
     49 H           3.4297    0.4714   -3.7467 H       1  UNL1        0.0655
     50 H           4.4927   -1.9385   -4.2260 H       1  UNL1        0.2923
     51 H           3.0822   -4.8635   -0.0309 H       1  UNL1        0.0660
     52 H           1.6942   -3.7756    0.1595 H       1  UNL1        0.0660
     53 H           3.3369   -3.2989    0.8145 H       1  UNL1        0.0660
     54 H           2.4599   -1.4662    0.6508 H       1  UNL1        0.0659
     55 H          -1.1438   -1.0802   -3.6378 H       1  UNL1        0.0660
     56 H           0.5372   -1.5963   -3.4602 H       1  UNL1        0.0660
     57 H          -0.7535   -2.3239   -2.4119 H       1  UNL1        0.0660
     58 H          -2.6681   -1.2585   -2.3109 H       1  UNL1        0.0658
@<TRIPOS>BOND
     1     1     2    2
     2     2     3    1
     3     3     4    1
     4     4     5   ar
     5     5     6   ar
     6     6     7    1
     7     7     8    1
     8     6     9   ar
     9     9    10    1
    10    10    11    1
    11    11    12    1
    12    11    13    1
    13    13    14    1
    14    14    15    1
    15    15    16    1
    16    15    17    2
    17    13    18    1
    18    18    19   ar
    19    19    20   ar
    20    20    21   ar
    21    21    22    1
    22    21    23   ar
    23    23    24    1
    24    24    25    1
    25    23    26   ar
    26     9    27   ar
    27    27    28    1
    28    28    29    1
    29    27    30   ar
    30    30     4   ar
    31    26    18   ar
    32     1    31    1
    33     1    32    1
    34     2    33    1
    35     3    34    1
    36     3    35    1
    37     5    36    1
    38     8    37    1
    39     8    38    1
    40     8    39    1
    41    11    40    1
    42    12    41    1
    43    12    42    1
    44    12    43    1
    45    13    44    1
    46    16    45    1
    47    16    46    1
    48    16    47    1
    49    19    48    1
    50    20    49    1
    51    22    50    1
    52    25    51    1
    53    25    52    1
    54    25    53    1
    55    26    54    1
    56    29    55    1
    57    29    56    1
    58    29    57    1
    59    30    58    1
@<TRIPOS>MOLECULE
CHEMBL1909927
 61 62 0 0 0
SMALL
GASTEIGER

@<TRIPOS>ATOM
      1 C          -4.6317    2.9955    1.8550 C.2     1  UNL1       -0.1023
      2 C          -5.3380    3.0154    0.7485 C.2     1  UNL1       -0.0868
      3 C          -4.9981    2.0688   -0.3451 C.3     1  UNL1       -0.0095
      4 C          -3.8398    1.2265    0.0650 C.ar    1  UNL1       -0.0365
      5 C          -2.5930    1.6776   -0.2246 C.ar    1  UNL1       -0.0126
      6 C          -1.4806    0.9253    0.1381 C.ar    1  UNL1        0.1655
      7 O          -0.2355    1.4202   -0.1748 O.3     1  UNL1       -0.4913
      8 C          -0.1345    2.6556   -0.8432 C.3     1  UNL1        0.0790
      9 C          -1.6038   -0.2733    0.7874 C.ar    1  UNL1        0.2042
     10 O          -0.5247   -1.0080    1.1418 O.3     1  UNL1       -0.4781
     11 C           0.1255   -2.0019    0.3918 C.3     1  UNL1        0.1386
     12 C          -0.2470   -3.4047    0.9269 C.3     1  UNL1       -0.0239
     13 C           1.6049   -1.9303    0.4408 C.3     1  UNL1        0.1644
     14 O           2.1617   -2.9707   -0.3452 O.3     1  UNL1       -0.4530
     15 C           2.8955   -4.0026    0.1735 C.2     1  UNL1        0.3046
     16 C           3.4332   -5.0459   -0.7605 C.3     1  UNL1        0.0333
     17 O           3.1063   -4.0609    1.4138 O.2     1  UNL1       -0.2511
     18 C           2.2273   -0.6652    0.0751 C.ar    1  UNL1       -0.0000
     19 C           2.6329    0.2064    1.0638 C.ar    1  UNL1       -0.0513
     20 C           3.2381    1.4248    0.7637 C.ar    1  UNL1       -0.0159
     21 C           3.4523    1.8016   -0.5284 C.ar    1  UNL1        0.1615
     22 O           4.0496    3.0040   -0.8197 O.3     1  UNL1       -0.4915
     23 C           4.4521    3.8711    0.2234 C.3     1  UNL1        0.0790
     24 C           3.0547    0.9453   -1.5462 C.ar    1  UNL1        0.1619
     25 O           3.2906    1.3665   -2.8371 O.3     1  UNL1       -0.4914
     26 C           2.9733    0.6676   -3.9996 C.3     1  UNL1        0.0790
     27 C           2.4577   -0.2556   -1.2257 C.ar    1  UNL1       -0.0095
     28 C          -2.8719   -0.7233    1.0772 C.ar    1  UNL1        0.1655
     29 O          -3.0349   -1.9172    1.7256 O.3     1  UNL1       -0.4913
     30 C          -4.3328   -2.3829    2.0250 C.3     1  UNL1        0.0790
     31 C          -4.0008    0.0239    0.7178 C.ar    1  UNL1       -0.0126
     32 H          -3.8209    2.3080    1.9717 H       1  UNL1        0.0532
     33 H          -4.8682    3.6760    2.6540 H       1  UNL1        0.0532
     34 H          -6.1638    3.7285    0.6521 H       1  UNL1        0.0570
     35 H          -4.7556    2.6801   -1.2457 H       1  UNL1        0.0355
     36 H          -5.8627    1.4286   -0.6260 H       1  UNL1        0.0355
     37 H          -2.4704    2.6386   -0.7459 H       1  UNL1        0.0658
     38 H          -0.7267    2.5898   -1.8014 H       1  UNL1        0.0660
     39 H           0.8707    2.9519   -1.1297 H       1  UNL1        0.0660
     40 H          -0.6029    3.4662   -0.2531 H       1  UNL1        0.0660
     41 H          -0.3332   -2.0050   -0.6178 H       1  UNL1        0.0771
     42 H          -0.0388   -3.4948    1.9905 H       1  UNL1        0.0266
     43 H           0.4455   -4.1087    0.3918 H       1  UNL1        0.0266
     44 H          -1.2593   -3.6926    0.6108 H       1  UNL1        0.0266
     45 H           1.9029   -2.1662    1.5058 H       1  UNL1        0.0823
     46 H           4.4585   -4.7521   -0.9970 H       1  UNL1        0.0342
     47 H           2.8119   -5.1319   -1.6679 H       1  UNL1        0.0342
     48 H           3.4778   -5.9899   -0.1769 H       1  UNL1        0.0342
     49 H           2.5045   -0.0064    2.1166 H       1  UNL1        0.0623
     50 H           3.5592    2.1147    1.5443 H       1  UNL1        0.0655
     51 H           4.8705    4.8078   -0.1787 H       1  UNL1        0.0660
     52 H           3.5873    4.0927    0.8893 H       1  UNL1        0.0660
     53 H           5.2138    3.3757    0.8731 H       1  UNL1        0.0660
     54 H           2.7258    1.4401   -4.7844 H       1  UNL1        0.0660
     55 H           2.1518   -0.0490   -3.9100 H       1  UNL1        0.0660
     56 H           3.8479    0.1131   -4.4376 H       1  UNL1        0.0660
     57 H           2.1661   -0.8873   -2.0508 H       1  UNL1        0.0659
     58 H          -4.9430   -2.5766    1.1144 H       1  UNL1        0.0660
     59 H          -4.8316   -1.5879    2.6188 H       1  UNL1        0.0660
     60 H          -4.2059   -3.3047    2.6490 H       1  UNL1        0.0660
     61 H          -4.9994   -0.3126    0.9364 H       1  UNL1        0.0658
@<TRIPOS>BOND
     1     1     2    2
     2     2     3    1
     3     3     4    1
     4     4     5   ar
     5     5     6   ar
     6     6     7    1
     7     7     8    1
     8     6     9   ar
     9     9    10    1
    10    10    11    1
    11    11    12    1
    12    11    13    1
    13    13    14    1
    14    14    15    1
    15    15    16    1
    16    15    17    2
    17    13    18    1
    18    18    19   ar
    19    19    20   ar
    20    20    21   ar
    21    21    22    1
    22    22    23    1
    23    21    24   ar
    24    24    25    1
    25    25    26    1
    26    24    27   ar
    27     9    28   ar
    28    28    29    1
    29    29    30    1
    30    28    31   ar
    31    31     4   ar
    32    27    18   ar
    33     1    32    1
    34     1    33    1
    35     2    34    1
    36     3    35    1
    37     3    36    1
    38     5    37    1
    39     8    38    1
    40     8    39    1
    41     8    40    1
    42    11    41    1
    43    12    42    1
    44    12    43    1
    45    12    44    1
    46    13    45    1
    47    16    46    1
    48    16    47    1
    49    16    48    1
    50    19    49    1
    51    20    50    1
    52    23    51    1
    53    23    52    1
    54    23    53    1
    55    26    54    1
    56    26    55    1
    57    26    56    1
    58    27    57    1
    59    30    58    1
    60    30    59    1
    61    30    60    1
    62    31    61    1
@<TRIPOS>MOLECULE
CHEMBL5272320
 84 86 0 0 0
SMALL
GASTEIGER

@<TRIPOS>ATOM
      1 C           5.4176   -4.4556   -1.9704 C.2     1  UNL1       -0.1023
      2 C           5.2975   -3.2029   -2.3906 C.2     1  UNL1       -0.0868
      3 C           5.7480   -2.1081   -1.4891 C.3     1  UNL1       -0.0095
      4 C           4.5709   -1.2420   -1.2136 C.ar    1  UNL1       -0.0365
      5 C           3.7318   -1.4412   -0.1474 C.ar    1  UNL1       -0.0126
      6 C           2.6343   -0.5998    0.0756 C.ar    1  UNL1        0.1655
      7 O           1.8375   -0.8617    1.1708 O.3     1  UNL1       -0.4913
      8 C           2.1497   -1.9457    2.0144 C.3     1  UNL1        0.0790
      9 C           2.3677    0.4466   -0.7661 C.ar    1  UNL1        0.2041
     10 O           1.3281    1.2838   -0.5999 O.3     1  UNL1       -0.4792
     11 C           0.0475    1.2787   -1.1224 C.3     1  UNL1        0.1278
     12 C          -0.1496    2.4443   -2.1028 C.3     1  UNL1       -0.0250
     13 C          -1.0804    1.2449   -0.1161 C.3     1  UNL1        0.1205
     14 O          -0.9818    0.0736    0.6007 O.3     1  UNL1       -0.3648
     15 C          -2.0466   -0.8016    0.3792 C.3     1  UNL1        0.0629
     16 C          -2.6239   -1.1152    1.7274 C.3     1  UNL1       -0.0237
     17 C          -3.4435   -2.3688    1.7653 C.3     1  UNL1       -0.0415
     18 C          -3.9037   -2.5403    3.2207 C.3     1  UNL1       -0.0623
     19 C          -2.5897   -3.5663    1.4561 C.3     1  UNL1       -0.0500
     20 C          -1.2755   -3.1281    0.8819 C.3     1  UNL1       -0.0474
     21 C          -1.4429   -2.0725   -0.1920 C.3     1  UNL1       -0.0123
     22 C          -2.3233   -2.6832   -1.2544 C.3     1  UNL1       -0.0415
     23 C          -2.5697   -1.7640   -2.4309 C.3     1  UNL1       -0.0623
     24 C          -1.5973   -3.8989   -1.7954 C.3     1  UNL1       -0.0623
     25 C          -1.1314    2.4544    0.7060 C.ar    1  UNL1       -0.0117
     26 C          -0.2285    2.6249    1.7286 C.ar    1  UNL1       -0.0523
     27 C          -0.2309    3.7491    2.5372 C.ar    1  UNL1       -0.0160
     28 C          -1.1533    4.7507    2.3411 C.ar    1  UNL1        0.1615
     29 O          -1.1788    5.8980    3.1431 O.3     1  UNL1       -0.4915
     30 C          -0.2812    6.1136    4.1918 C.3     1  UNL1        0.0790
     31 C          -2.0664    4.5981    1.3215 C.ar    1  UNL1        0.1618
     32 O          -2.9979    5.6061    1.1220 O.3     1  UNL1       -0.4914
     33 C          -3.9801    5.5437    0.1038 C.3     1  UNL1        0.0790
     34 C          -2.0523    3.4559    0.5112 C.ar    1  UNL1       -0.0105
     35 C           3.2335    0.6307   -1.8435 C.ar    1  UNL1        0.1655
     36 O           2.9645    1.6876   -2.6933 O.3     1  UNL1       -0.4913
     37 C           3.8270    1.8996   -3.7935 C.3     1  UNL1        0.0790
     38 C           4.3133   -0.1945   -2.0648 C.ar    1  UNL1       -0.0126
     39 H           5.8229   -4.7006   -1.0145 H       1  UNL1        0.0532
     40 H           5.0977   -5.2950   -2.6051 H       1  UNL1        0.0532
     41 H           4.8900   -2.9419   -3.3534 H       1  UNL1        0.0570
     42 H           6.5753   -1.5008   -1.9265 H       1  UNL1        0.0355
     43 H           6.0983   -2.5184   -0.5020 H       1  UNL1        0.0355
     44 H           3.9475   -2.2699    0.5157 H       1  UNL1        0.0658
     45 H           2.2059   -2.8646    1.3916 H       1  UNL1        0.0660
     46 H           1.4041   -2.0443    2.8418 H       1  UNL1        0.0660
     47 H           3.1297   -1.7831    2.5443 H       1  UNL1        0.0660
     48 H          -0.0397    0.3324   -1.7384 H       1  UNL1        0.0760
     49 H           0.2774    3.3651   -1.6841 H       1  UNL1        0.0266
     50 H           0.2640    2.1374   -3.0728 H       1  UNL1        0.0266
     51 H          -1.2577    2.5681   -2.2530 H       1  UNL1        0.0266
     52 H          -2.0284    1.1724   -0.7177 H       1  UNL1        0.0684
     53 H          -2.7852   -0.3699   -0.3361 H       1  UNL1        0.0599
     54 H          -1.7627   -1.2652    2.4238 H       1  UNL1        0.0293
     55 H          -3.2258   -0.3014    2.1550 H       1  UNL1        0.0293
     56 H          -4.3664   -2.3164    1.1633 H       1  UNL1        0.0299
     57 H          -4.6197   -3.3710    3.3145 H       1  UNL1        0.0232
     58 H          -4.2775   -1.5704    3.5911 H       1  UNL1        0.0232
     59 H          -2.9474   -2.7513    3.7823 H       1  UNL1        0.0232
     60 H          -3.1716   -4.2266    0.7850 H       1  UNL1        0.0268
     61 H          -2.3605   -4.1898    2.3584 H       1  UNL1        0.0268
     62 H          -0.8140   -4.0087    0.3835 H       1  UNL1        0.0269
     63 H          -0.5896   -2.8214    1.6914 H       1  UNL1        0.0269
     64 H          -0.4444   -1.9046   -0.6437 H       1  UNL1        0.0328
     65 H          -3.2989   -3.0360   -0.8636 H       1  UNL1        0.0299
     66 H          -2.7824   -2.4087   -3.3305 H       1  UNL1        0.0232
     67 H          -3.5597   -1.2621   -2.2281 H       1  UNL1        0.0232
     68 H          -1.7710   -1.0540   -2.6282 H       1  UNL1        0.0232
     69 H          -1.9617   -4.0782   -2.8504 H       1  UNL1        0.0232
     70 H          -0.5177   -3.7804   -1.8606 H       1  UNL1        0.0232
     71 H          -1.8318   -4.8256   -1.2514 H       1  UNL1        0.0232
     72 H           0.4999    1.8723    1.9119 H       1  UNL1        0.0622
     73 H           0.4887    3.8588    3.3330 H       1  UNL1        0.0655
     74 H          -0.7351    6.8456    4.9195 H       1  UNL1        0.0660
     75 H           0.6804    6.5777    3.8547 H       1  UNL1        0.0660
     76 H          -0.0144    5.2105    4.7678 H       1  UNL1        0.0660
     77 H          -3.4905    5.6705   -0.8603 H       1  UNL1        0.0660
     78 H          -4.8147    6.2477    0.2891 H       1  UNL1        0.0660
     79 H          -4.4377    4.5219    0.1446 H       1  UNL1        0.0660
     80 H          -2.7714    3.3660   -0.2698 H       1  UNL1        0.0659
     81 H           4.8229    2.1937   -3.3687 H       1  UNL1        0.0660
     82 H           3.4399    2.7065   -4.4553 H       1  UNL1        0.0660
     83 H           3.9510    1.0030   -4.4318 H       1  UNL1        0.0660
     84 H           4.9420    0.0165   -2.9262 H       1  UNL1        0.0658
@<TRIPOS>BOND
     1     1     2    2
     2     2     3    1
     3     3     4    1
     4     4     5   ar
     5     5     6   ar
     6     6     7    1
     7     7     8    1
     8     6     9   ar
     9     9    10    1
    10    10    11    1
    11    11    12    1
    12    11    13    1
    13    13    14    1
    14    14    15    1
    15    15    16    1
    16    16    17    1
    17    17    18    1
    18    17    19    1
    19    19    20    1
    20    20    21    1
    21    21    22    1
    22    22    23    1
    23    22    24    1
    24    13    25    1
    25    25    26   ar
    26    26    27   ar
    27    27    28   ar
    28    28    29    1
    29    29    30    1
    30    28    31   ar
    31    31    32    1
    32    32    33    1
    33    31    34   ar
    34     9    35   ar
    35    35    36    1
    36    36    37    1
    37    35    38   ar
    38    38     4   ar
    39    21    15    1
    40    34    25   ar
    41     1    39    1
    42     1    40    1
    43     2    41    1
    44     3    42    1
    45     3    43    1
    46     5    44    1
    47     8    45    1
    48     8    46    1
    49     8    47    1
    50    11    48    1
    51    12    49    1
    52    12    50    1
    53    12    51    1
    54    13    52    1
    55    15    53    1
    56    16    54    1
    57    16    55    1
    58    17    56    1
    59    18    57    1
    60    18    58    1
    61    18    59    1
    62    19    60    1
    63    19    61    1
    64    20    62    1
    65    20    63    1
    66    21    64    1
    67    22    65    1
    68    23    66    1
    69    23    67    1
    70    23    68    1
    71    24    69    1
    72    24    70    1
    73    24    71    1
    74    26    72    1
    75    27    73    1
    76    30    74    1
    77    30    75    1
    78    30    76    1
    79    33    77    1
    80    33    78    1
    81    33    79    1
    82    34    80    1
    83    37    81    1
    84    37    82    1
    85    37    83    1
    86    38    84    1
@<TRIPOS>MOLECULE
CHEMBL4087839
 53 54 0 0 0
SMALL
GASTEIGER

@<TRIPOS>ATOM
      1 C          -6.2209    0.5747    0.0975 C.2     1  UNL1       -0.1023
      2 C          -6.2557    1.7645   -0.4856 C.2     1  UNL1       -0.0868
      3 C          -5.0127    2.3886   -1.0257 C.3     1  UNL1       -0.0095
      4 C          -3.8594    1.4811   -0.7915 C.ar    1  UNL1       -0.0365
      5 C          -3.1707    1.6269    0.3951 C.ar    1  UNL1       -0.0126
      6 C          -2.0865    0.8018    0.6575 C.ar    1  UNL1        0.1655
      7 O          -1.4134    0.9706    1.8592 O.3     1  UNL1       -0.4913
      8 C          -1.8211    1.9527    2.7858 C.3     1  UNL1        0.0790
      9 C          -1.7288   -0.1409   -0.2770 C.ar    1  UNL1        0.2041
     10 O          -0.6653   -0.9629   -0.0406 O.3     1  UNL1       -0.4792
     11 C           0.6855   -0.6930   -0.4413 C.3     1  UNL1        0.1276
     12 C           0.9446   -1.7675   -1.5216 C.3     1  UNL1       -0.0250
     13 C           1.6633   -0.9420    0.6402 C.3     1  UNL1        0.1167
     14 O           1.4090   -0.1994    1.7674 O.3     1  UNL1       -0.3835
     15 C           3.0699   -0.6743    0.2534 C.ar    1  UNL1       -0.0120
     16 C           3.5149   -0.3021   -0.9683 C.ar    1  UNL1       -0.0523
     17 C           4.8662   -0.0916   -1.2055 C.ar    1  UNL1       -0.0162
     18 C           5.8150   -0.2459   -0.2300 C.ar    1  UNL1        0.1585
     19 O           7.1732   -0.0432   -0.4351 O.3     1  UNL1       -0.5033
     20 C           5.3668   -0.6287    1.0322 C.ar    1  UNL1        0.1616
     21 O           6.2488   -0.8066    2.0717 O.3     1  UNL1       -0.4914
     22 C           5.9039   -1.1846    3.3658 C.3     1  UNL1        0.0790
     23 C           4.0226   -0.8348    1.2549 C.ar    1  UNL1       -0.0106
     24 C          -2.4224   -0.2821   -1.4635 C.ar    1  UNL1        0.1655
     25 O          -2.0185   -1.2635   -2.3919 O.3     1  UNL1       -0.4913
     26 C          -2.6708   -1.4609   -3.6056 C.3     1  UNL1        0.0790
     27 C          -3.4944    0.5348   -1.7209 C.ar    1  UNL1       -0.0126
     28 H          -7.1470    0.1703    0.4699 H       1  UNL1        0.0532
     29 H          -5.2674    0.0613    0.1751 H       1  UNL1        0.0532
     30 H          -7.1757    2.3077   -0.5838 H       1  UNL1        0.0570
     31 H          -4.8930    3.3529   -0.4835 H       1  UNL1        0.0355
     32 H          -5.1413    2.6350   -2.0915 H       1  UNL1        0.0355
     33 H          -3.4699    2.3738    1.1125 H       1  UNL1        0.0658
     34 H          -1.3131    1.7668    3.7606 H       1  UNL1        0.0660
     35 H          -1.5599    2.9683    2.3889 H       1  UNL1        0.0660
     36 H          -2.9143    1.8710    3.0105 H       1  UNL1        0.0660
     37 H           0.6849    0.2941   -0.9049 H       1  UNL1        0.0760
     38 H           0.1883   -2.5833   -1.4743 H       1  UNL1        0.0266
     39 H           1.9155   -2.2864   -1.3458 H       1  UNL1        0.0266
     40 H           0.9207   -1.3625   -2.5279 H       1  UNL1        0.0266
     41 H           1.5951   -2.0181    0.9293 H       1  UNL1        0.0681
     42 H           1.6202   -0.6640    2.6092 H       1  UNL1        0.2104
     43 H           2.8310   -0.1579   -1.7631 H       1  UNL1        0.0622
     44 H           5.1844    0.2026   -2.1864 H       1  UNL1        0.0655
     45 H           7.6866    0.5462    0.2261 H       1  UNL1        0.2923
     46 H           6.6881   -0.9581    4.1172 H       1  UNL1        0.0660
     47 H           5.5539   -2.2322    3.4677 H       1  UNL1        0.0660
     48 H           5.0271   -0.5455    3.6821 H       1  UNL1        0.0660
     49 H           3.7100   -1.1318    2.2455 H       1  UNL1        0.0659
     50 H          -2.5857   -0.5663   -4.2440 H       1  UNL1        0.0660
     51 H          -3.7381   -1.7619   -3.4238 H       1  UNL1        0.0660
     52 H          -2.1778   -2.3174   -4.1141 H       1  UNL1        0.0660
     53 H          -4.0656    0.4638   -2.6288 H       1  UNL1        0.0658
@<TRIPOS>BOND
     1     1     2    2
     2     2     3    1
     3     3     4    1
     4     4     5   ar
     5     5     6   ar
     6     6     7    1
     7     7     8    1
     8     6     9   ar
     9     9    10    1
    10    10    11    1
    11    11    12    1
    12    11    13    1
    13    13    14    1
    14    13    15    1
    15    15    16   ar
    16    16    17   ar
    17    17    18   ar
    18    18    19    1
    19    18    20   ar
    20    20    21    1
    21    21    22    1
    22    20    23   ar
    23     9    24   ar
    24    24    25    1
    25    25    26    1
    26    24    27   ar
    27    27     4   ar
    28    23    15   ar
    29     1    28    1
    30     1    29    1
    31     2    30    1
    32     3    31    1
    33     3    32    1
    34     5    33    1
    35     8    34    1
    36     8    35    1
    37     8    36    1
    38    11    37    1
    39    12    38    1
    40    12    39    1
    41    12    40    1
    42    13    41    1
    43    14    42    1
    44    16    43    1
    45    17    44    1
    46    19    45    1
    47    22    46    1
    48    22    47    1
    49    22    48    1
    50    23    49    1
    51    26    50    1
    52    26    51    1
    53    26    52    1
    54    27    53    1
@<TRIPOS>MOLECULE
884169
 53 57 0 0 0
SMALL
GASTEIGER

@<TRIPOS>ATOM
      1 C          -3.0076   -0.4307    1.9442 C.3     1  UNL1       -0.0591
      2 C          -3.3761   -0.4566    0.4911 C.3     1  UNL1       -0.0228
      3 C          -4.6692   -1.2222    0.2435 C.3     1  UNL1       -0.0591
      4 C          -3.5511    0.9419    0.0105 C.3     1  UNL1        0.0158
      5 C          -2.2466    1.5970   -0.2414 C.2     1  UNL1        0.1642
      6 O          -2.2373    2.8124   -0.4701 O.2     1  UNL1       -0.2922
      7 C          -0.9744    0.8849   -0.2339 C.2     1  UNL1        0.0512
      8 C          -1.0021   -0.4304   -0.2488 C.2     1  UNL1        0.0170
      9 C          -2.2921   -1.1891   -0.2720 C.3     1  UNL1       -0.0086
     10 N           0.2074   -1.1805   -0.2534 N.pl3   1  UNL1       -0.3252
     11 C           0.2678   -2.4983   -0.8426 C.3     1  UNL1        0.0165
     12 C           1.2704   -3.3740   -0.0815 C.3     1  UNL1       -0.0116
     13 C           2.5724   -2.6839   -0.1169 C.ar    1  UNL1       -0.0409
     14 C           3.7108   -3.4132   -0.3592 C.ar    1  UNL1       -0.0582
     15 C           4.9354   -2.7944   -0.4052 C.ar    1  UNL1       -0.0615
     16 C           5.0145   -1.4471   -0.2083 C.ar    1  UNL1       -0.0614
     17 C           3.8588   -0.7202    0.0357 C.ar    1  UNL1       -0.0565
     18 C           2.6255   -1.3309    0.0841 C.ar    1  UNL1       -0.0238
     19 C           1.3725   -0.5768    0.3517 C.3     1  UNL1        0.0519
     20 C           1.5085    0.8068   -0.1727 C.3     1  UNL1        0.0111
     21 C           0.2689    1.6362   -0.2088 C.3     1  UNL1        0.1929
     22 S           0.4017    2.6756   -1.7056 S.O     1  UNL1        0.0560
     23 O           1.5096    2.1990   -2.6122 O.2     1  UNL1       -0.2547
     24 C           0.5391    4.3406   -1.1710 C.3     1  UNL1        0.0452
     25 C           0.1959    4.4533    0.2626 C.3     1  UNL1        0.0791
     26 S           0.3238    2.8938    1.0304 S.O2    1  UNL1       -0.0087
     27 O           1.6644    2.8110    1.7104 O.2     1  UNL1       -0.1726
     28 O          -0.7028    2.6735    2.1047 O.2     1  UNL1       -0.1726
     29 H          -2.6440   -1.4249    2.3113 H       1  UNL1        0.0235
     30 H          -3.9110   -0.1037    2.5095 H       1  UNL1        0.0235
     31 H          -2.1941    0.3134    2.0684 H       1  UNL1        0.0235
     32 H          -4.9259   -1.0497   -0.8332 H       1  UNL1        0.0235
     33 H          -4.4133   -2.3021    0.3844 H       1  UNL1        0.0235
     34 H          -5.4782   -0.8853    0.9027 H       1  UNL1        0.0235
     35 H          -4.0707    0.8943   -0.9857 H       1  UNL1        0.0350
     36 H          -4.1867    1.4854    0.7253 H       1  UNL1        0.0350
     37 H          -2.1814   -2.1615    0.2213 H       1  UNL1        0.0331
     38 H          -2.6104   -1.3924   -1.3184 H       1  UNL1        0.0331
     39 H          -0.6954   -3.0337   -0.8025 H       1  UNL1        0.0467
     40 H           0.5783   -2.4799   -1.9086 H       1  UNL1        0.0467
     41 H           0.8928   -3.5094    0.9576 H       1  UNL1        0.0328
     42 H           1.2710   -4.3487   -0.5729 H       1  UNL1        0.0328
     43 H           3.6357   -4.4921   -0.5154 H       1  UNL1        0.0620
     44 H           5.8556   -3.3407   -0.5944 H       1  UNL1        0.0618
     45 H           5.9580   -0.8926   -0.2320 H       1  UNL1        0.0618
     46 H           3.9285    0.3551    0.1922 H       1  UNL1        0.0621
     47 H           1.1779   -0.5572    1.4539 H       1  UNL1        0.0551
     48 H           2.2365    1.3284    0.5223 H       1  UNL1        0.0320
     49 H           2.0370    0.7791   -1.1513 H       1  UNL1        0.0320
     50 H          -0.1523    4.9803   -1.7632 H       1  UNL1        0.0418
     51 H           1.5699    4.7140   -1.3963 H       1  UNL1        0.0418
     52 H           0.9306    5.1806    0.7237 H       1  UNL1        0.0509
     53 H          -0.7962    4.9657    0.4360 H       1  UNL1        0.0509
@<TRIPOS>BOND
     1     1     2    1
     2     2     3    1
     3     2     4    1
     4     4     5    1
     5     5     6    2
     6     5     7    1
     7     7     8    2
     8     8     9    1
     9     8    10    1
    10    10    11    1
    11    11    12    1
    12    12    13    1
    13    13    14   ar
    14    14    15   ar
    15    15    16   ar
    16    16    17   ar
    17    17    18   ar
    18    18    19    1
    19    19    20    1
    20    20    21    1
    21    21    22    1
    22    22    23    2
    23    22    24    1
    24    24    25    1
    25    25    26    1
    26    26    27    2
    27    26    28    2
    28     9     2    1
    29    19    10    1
    30    26    21    1
    31    21     7    1
    32    18    13   ar
    33     1    29    1
    34     1    30    1
    35     1    31    1
    36     3    32    1
    37     3    33    1
    38     3    34    1
    39     4    35    1
    40     4    36    1
    41     9    37    1
    42     9    38    1
    43    11    39    1
    44    11    40    1
    45    12    41    1
    46    12    42    1
    47    14    43    1
    48    15    44    1
    49    16    45    1
    50    17    46    1
    51    19    47    1
    52    20    48    1
    53    20    49    1
    54    24    50    1
    55    24    51    1
    56    25    52    1
    57    25    53    1
@<TRIPOS>MOLECULE
884207
 45 47 0 0 0
SMALL
GASTEIGER

@<TRIPOS>ATOM
      1 C          -1.4284   -1.1146    1.8421 C.3     1  UNL1       -0.0612
      2 C          -2.5818   -1.0392    0.8564 C.3     1  UNL1       -0.0305
      3 C          -2.9063   -2.5109    0.5387 C.3     1  UNL1       -0.0612
      4 C          -2.2553   -0.3919   -0.4362 C.3     1  UNL1        0.0224
      5 N          -1.8019    0.9758   -0.3716 N.am    1  UNL1       -0.2677
      6 C          -0.4279    1.1965   -0.2441 C.2     1  UNL1        0.2437
      7 O          -0.0410    2.3990   -0.0868 O.2     1  UNL1       -0.2703
      8 C           0.5965    0.1356   -0.2804 C.2     1  UNL1        0.0012
      9 C           1.8516    0.4626   -0.1494 C.2     1  UNL1       -0.0496
     10 C           2.9625   -0.4786   -0.1661 C.ar    1  UNL1       -0.0212
     11 C           2.8013   -1.8233   -0.3233 C.ar    1  UNL1       -0.0509
     12 C           3.8992   -2.6943   -0.3335 C.ar    1  UNL1       -0.0156
     13 C           5.1720   -2.1994   -0.1832 C.ar    1  UNL1        0.1663
     14 C           5.3440   -0.8548   -0.0252 C.ar    1  UNL1        0.1668
     15 C           4.2528   -0.0136   -0.0177 C.ar    1  UNL1       -0.0090
     16 O           6.6988   -0.6036    0.1051 O.3     1  UNL1       -0.4526
     17 C           7.3924   -1.7792   -0.2254 C.3     1  UNL1        0.2332
     18 O           6.4292   -2.7932   -0.1514 O.3     1  UNL1       -0.4526
     19 C          -2.7513    2.0157   -0.4395 C.ar    1  UNL1        0.0366
     20 C          -2.4749    3.3663   -0.5404 C.ar    1  UNL1       -0.0389
     21 C          -3.4297    4.3734   -0.5846 C.ar    1  UNL1       -0.0416
     22 C          -4.7547    4.0154   -0.5253 C.ar    1  UNL1        0.0411
     23 CL         -5.9842    5.2613   -0.5787 Cl      1  UNL1       -0.0835
     24 C          -5.0668    2.6806   -0.4253 C.ar    1  UNL1       -0.0416
     25 C          -4.1225    1.6889   -0.3815 C.ar    1  UNL1       -0.0389
     26 H          -0.6572   -1.8371    1.5330 H       1  UNL1        0.0233
     27 H          -1.8876   -1.5880    2.7638 H       1  UNL1        0.0233
     28 H          -1.0347   -0.1253    2.0867 H       1  UNL1        0.0233
     29 H          -3.4962   -0.6837    1.3705 H       1  UNL1        0.0311
     30 H          -3.3779   -2.5827   -0.4680 H       1  UNL1        0.0233
     31 H          -3.6230   -2.9312    1.2541 H       1  UNL1        0.0233
     32 H          -2.0061   -3.1339    0.5433 H       1  UNL1        0.0233
     33 H          -3.1392   -0.5323   -1.1304 H       1  UNL1        0.0471
     34 H          -1.4938   -1.0746   -0.9359 H       1  UNL1        0.0471
     35 H           0.3403   -0.8823   -0.4118 H       1  UNL1        0.0670
     36 H           2.0793    1.5253   -0.0174 H       1  UNL1        0.0625
     37 H           1.8411   -2.2544   -0.4429 H       1  UNL1        0.0625
     38 H           3.7668   -3.7533   -0.4578 H       1  UNL1        0.0655
     39 H           4.4476    1.0456    0.1113 H       1  UNL1        0.0661
     40 H           7.8109   -1.6526   -1.2424 H       1  UNL1        0.1166
     41 H           8.1935   -1.9911    0.5243 H       1  UNL1        0.1166
     42 H          -1.4569    3.7214   -0.6081 H       1  UNL1        0.0637
     43 H          -3.1602    5.4082   -0.6628 H       1  UNL1        0.0633
     44 H          -6.1280    2.4045   -0.3788 H       1  UNL1        0.0633
     45 H          -4.3922    0.6433   -0.3021 H       1  UNL1        0.0637
@<TRIPOS>BOND
     1     1     2    1
     2     2     3    1
     3     2     4    1
     4     4     5    1
     5     5     6   am
     6     6     7    2
     7     6     8    1
     8     8     9    2
     9     9    10    1
    10    10    11   ar
    11    11    12   ar
    12    12    13   ar
    13    13    14   ar
    14    14    15   ar
    15    14    16    1
    16    16    17    1
    17    17    18    1
    18     5    19    1
    19    19    20   ar
    20    20    21   ar
    21    21    22   ar
    22    22    23    1
    23    22    24   ar
    24    24    25   ar
    25    15    10   ar
    26    25    19   ar
    27    18    13    1
    28     1    26    1
    29     1    27    1
    30     1    28    1
    31     2    29    1
    32     3    30    1
    33     3    31    1
    34     3    32    1
    35     4    33    1
    36     4    34    1
    37     8    35    1
    38     9    36    1
    39    11    37    1
    40    12    38    1
    41    15    39    1
    42    17    40    1
    43    17    41    1
    44    20    42    1
    45    21    43    1
    46    24    44    1
    47    25    45    1
@<TRIPOS>MOLECULE
CHEMBL4094279
 34 35 0 0 0
SMALL
GASTEIGER

@<TRIPOS>ATOM
      1 C           4.7038    2.8359   -0.7459 C.3     1  UNL1       -0.0397
      2 C           3.7996    1.6802   -0.5350 C.ar    1  UNL1       -0.0502
      3 C           4.3693    0.4270   -0.4549 C.ar    1  UNL1       -0.0554
      4 C           3.5395   -0.6380   -0.2610 C.ar    1  UNL1       -0.0197
      5 C           2.1477   -0.5269   -0.1397 C.ar    1  UNL1        0.1212
      6 O           1.4814   -1.6976    0.0509 O.3     1  UNL1       -0.4827
      7 C           0.0965   -1.8935    0.1939 C.3     1  UNL1        0.1673
      8 C          -0.6737   -1.4754   -0.9840 C.2     1  UNL1        0.2759
      9 O          -0.0448   -1.0246   -1.9746 O.2     1  UNL1       -0.2697
     10 N          -2.0743   -1.5570   -1.0600 N.am    1  UNL1       -0.1761
     11 O          -2.7547   -1.1886   -2.1873 O.3     1  UNL1       -0.2921
     12 C          -2.9037   -2.0046    0.0319 C.3     1  UNL1        0.0729
     13 C          -3.3725   -0.9291    0.9002 C.ar    1  UNL1        0.0095
     14 C          -4.4862   -0.1406    0.7720 C.ar    1  UNL1       -0.0499
     15 C          -4.7628    0.7888    1.6842 C.ar    1  UNL1       -0.0544
     16 C          -3.9291    0.9511    2.7487 C.ar    1  UNL1       -0.0240
     17 S          -2.6381   -0.3294    2.4256 S.2     1  UNL1       -0.0999
     18 C           1.6215    0.7219   -0.2230 C.ar    1  UNL1       -0.0197
     19 C           2.4329    1.8224   -0.4192 C.ar    1  UNL1       -0.0554
     20 H           5.6697    2.5010   -1.1700 H       1  UNL1        0.0278
     21 H           4.8466    3.4332    0.1785 H       1  UNL1        0.0278
     22 H           4.2152    3.4777   -1.5308 H       1  UNL1        0.0278
     23 H           5.4545    0.2793   -0.5430 H       1  UNL1        0.0621
     24 H           4.0231   -1.6179   -0.2021 H       1  UNL1        0.0654
     25 H          -0.3105   -1.4586    1.0984 H       1  UNL1        0.0796
     26 H          -0.0492   -3.0001    0.2837 H       1  UNL1        0.0796
     27 H          -2.2223   -0.5731   -2.7418 H       1  UNL1        0.2417
     28 H          -3.7334   -2.6129   -0.3878 H       1  UNL1        0.0544
     29 H          -2.3031   -2.6983    0.6720 H       1  UNL1        0.0544
     30 H          -5.1539   -0.2974   -0.1150 H       1  UNL1        0.0626
     31 H          -5.6691    1.4857    1.6511 H       1  UNL1        0.0623
     32 H          -3.9104    1.5966    3.5987 H       1  UNL1        0.0693
     33 H           0.5695    0.8502   -0.1285 H       1  UNL1        0.0654
     34 H           2.0211    2.8124   -0.4861 H       1  UNL1        0.0621
@<TRIPOS>BOND
     1     1     2    1
     2     2     3   ar
     3     3     4   ar
     4     4     5   ar
     5     5     6    1
     6     6     7    1
     7     7     8    1
     8     8     9    2
     9     8    10   am
    10    10    11    1
    11    10    12    1
    12    12    13    1
    13    13    14   ar
    14    14    15   ar
    15    15    16   ar
    16    16    17   ar
    17     5    18   ar
    18    18    19   ar
    19    19     2   ar
    20    17    13   ar
    21     1    20    1
    22     1    21    1
    23     1    22    1
    24     3    23    1
    25     4    24    1
    26     7    25    1
    27     7    26    1
    28    11    27    1
    29    12    28    1
    30    12    29    1
    31    14    30    1
    32    15    31    1
    33    16    32    1
    34    18    33    1
    35    19    34    1
@<TRIPOS>MOLECULE
884234
 45 48 0 0 0
SMALL
GASTEIGER

@<TRIPOS>ATOM
      1 O          -0.4650    2.2766   -0.2794 O.2     1  UNL1       -0.2749
      2 C          -0.5556    0.9856   -0.0828 C.2     1  UNL1        0.2244
      3 C           0.7425    0.3692    0.1613 C.3     1  UNL1        0.0288
      4 C           1.8840    1.3920    0.1099 C.3     1  UNL1       -0.0193
      5 C           3.1337    0.6321    0.3733 C.ar    1  UNL1       -0.0432
      6 C           3.5894    0.4777    1.6666 C.ar    1  UNL1       -0.0549
      7 C           4.7327   -0.2130    1.9525 C.ar    1  UNL1       -0.0159
      8 C           5.4597   -0.7783    0.9036 C.ar    1  UNL1        0.1662
      9 C           5.0351   -0.6448   -0.4035 C.ar    1  UNL1        0.1665
     10 C           3.8770    0.0584   -0.6577 C.ar    1  UNL1       -0.0130
     11 O           5.9575   -1.3061   -1.1877 O.3     1  UNL1       -0.4526
     12 C           6.7333   -2.1255   -0.3680 C.3     1  UNL1        0.2332
     13 O           6.6292   -1.5147    0.9037 O.3     1  UNL1       -0.4526
     14 N          -1.8397    0.4684   -0.1436 N.am    1  UNL1       -0.2403
     15 C          -2.2812   -0.8626    0.0171 C.ar    1  UNL1        0.0413
     16 C          -3.6502   -1.1676   -0.0727 C.ar    1  UNL1       -0.0399
     17 C          -4.1718   -2.4182    0.0659 C.ar    1  UNL1       -0.0600
     18 C          -3.3358   -3.4821    0.3110 C.ar    1  UNL1       -0.0616
     19 C          -1.9887   -3.2386    0.4079 C.ar    1  UNL1       -0.0600
     20 C          -1.4715   -1.9387    0.2614 C.ar    1  UNL1       -0.0399
     21 C          -2.9037    1.4523   -0.4167 C.ar    1  UNL1        0.0413
     22 C          -3.2005    1.6597   -1.7416 C.ar    1  UNL1       -0.0399
     23 C          -4.2008    2.5817   -2.0542 C.ar    1  UNL1       -0.0600
     24 C          -4.8449    3.2413   -1.0289 C.ar    1  UNL1       -0.0616
     25 C          -4.5134    3.0018    0.3062 C.ar    1  UNL1       -0.0600
     26 C          -3.5264    2.0930    0.6311 C.ar    1  UNL1       -0.0399
     27 H           0.7986   -0.0954    1.1505 H       1  UNL1        0.0362
     28 H           0.9922   -0.3469   -0.6370 H       1  UNL1        0.0362
     29 H           1.7408    2.0904    0.9586 H       1  UNL1        0.0318
     30 H           1.8976    1.9381   -0.8385 H       1  UNL1        0.0318
     31 H           3.0230    0.9198    2.5009 H       1  UNL1        0.0621
     32 H           5.0717   -0.3220    2.9721 H       1  UNL1        0.0655
     33 H           3.5341    0.1693   -1.6825 H       1  UNL1        0.0658
     34 H           7.8029   -2.1632   -0.6727 H       1  UNL1        0.1166
     35 H           6.3087   -3.1490   -0.3163 H       1  UNL1        0.1166
     36 H          -4.3220   -0.3515   -0.2636 H       1  UNL1        0.0636
     37 H          -5.2298   -2.6448   -0.0049 H       1  UNL1        0.0618
     38 H          -3.7204   -4.4832    0.4251 H       1  UNL1        0.0618
     39 H          -1.2674   -4.0125    0.5974 H       1  UNL1        0.0618
     40 H          -0.4249   -1.8095    0.3447 H       1  UNL1        0.0636
     41 H          -2.6903    1.1378   -2.5415 H       1  UNL1        0.0636
     42 H          -4.4637    2.7724   -3.0986 H       1  UNL1        0.0618
     43 H          -5.6259    3.9611   -1.2743 H       1  UNL1        0.0618
     44 H          -5.0262    3.5260    1.1049 H       1  UNL1        0.0618
     45 H          -3.2240    1.8635    1.6426 H       1  UNL1        0.0636
@<TRIPOS>BOND
     1     1     2    2
     2     2     3    1
     3     3     4    1
     4     4     5    1
     5     5     6   ar
     6     6     7   ar
     7     7     8   ar
     8     8     9   ar
     9     9    10   ar
    10     9    11    1
    11    11    12    1
    12    12    13    1
    13     2    14   am
    14    14    15    1
    15    15    16   ar
    16    16    17   ar
    17    17    18   ar
    18    18    19   ar
    19    19    20   ar
    20    14    21    1
    21    21    22   ar
    22    22    23   ar
    23    23    24   ar
    24    24    25   ar
    25    25    26   ar
    26    10     5   ar
    27    20    15   ar
    28    26    21   ar
    29    13     8    1
    30     3    27    1
    31     3    28    1
    32     4    29    1
    33     4    30    1
    34     6    31    1
    35     7    32    1
    36    10    33    1
    37    12    34    1
    38    12    35    1
    39    16    36    1
    40    17    37    1
    41    18    38    1
    42    19    39    1
    43    20    40    1
    44    22    41    1
    45    23    42    1
    46    24    43    1
    47    25    44    1
    48    26    45    1
@<TRIPOS>MOLECULE
884202
 38 40 0 0 0
SMALL
GASTEIGER

@<TRIPOS>ATOM
      1 C          -3.0206   -2.0246   -0.4762 C.3     1  UNL1       -0.0488
      2 C          -1.9775   -0.9845   -1.0250 C.3     1  UNL1        0.0186
      3 N          -2.0305    0.0532    0.0167 N.am    1  UNL1       -0.2529
      4 C          -1.1556    0.0367    1.0962 C.2     1  UNL1        0.2447
      5 O          -1.5938    0.2094    2.3094 O.2     1  UNL1       -0.2702
      6 C           0.2661   -0.1562    1.0290 C.2     1  UNL1        0.0013
      7 C           0.9026   -0.2326   -0.1138 C.2     1  UNL1       -0.0496
      8 C           2.3546   -0.4383   -0.1735 C.ar    1  UNL1       -0.0212
      9 C           2.9598   -0.5131   -1.4045 C.ar    1  UNL1       -0.0509
     10 C           4.3202   -0.7050   -1.5301 C.ar    1  UNL1       -0.0156
     11 C           5.0971   -0.8254   -0.4124 C.ar    1  UNL1        0.1663
     12 C           4.5225   -0.7551    0.8254 C.ar    1  UNL1        0.1668
     13 C           3.1538   -0.5618    0.9330 C.ar    1  UNL1       -0.0090
     14 O           5.5293   -0.9066    1.7762 O.3     1  UNL1       -0.4526
     15 C           6.7582   -0.6265    1.1129 C.3     1  UNL1        0.2332
     16 O           6.4668   -1.0216   -0.2155 O.3     1  UNL1       -0.4526
     17 C          -3.1602    0.9608   -0.0502 C.ar    1  UNL1        0.1277
     18 C          -3.4251    1.9056    0.9025 C.ar    1  UNL1       -0.0213
     19 C          -4.5468    2.7338    0.7551 C.ar    1  UNL1       -0.0571
     20 C          -5.3988    2.6306   -0.3225 C.ar    1  UNL1       -0.0435
     21 C          -5.0816    1.6594   -1.2528 C.ar    1  UNL1        0.0297
     22 N          -4.0033    0.8718   -1.0995 N.ar    1  UNL1       -0.2399
     23 H          -2.8439   -3.0015   -0.9445 H       1  UNL1        0.0245
     24 H          -2.8769   -2.1351    0.6157 H       1  UNL1        0.0245
     25 H          -4.0035   -1.5793   -0.6807 H       1  UNL1        0.0245
     26 H          -1.0249   -1.5235   -1.0567 H       1  UNL1        0.0466
     27 H          -2.3089   -0.6002   -1.9880 H       1  UNL1        0.0466
     28 H           0.8542   -0.2463    1.9840 H       1  UNL1        0.0670
     29 H           0.4215   -0.0922   -1.0717 H       1  UNL1        0.0625
     30 H           2.3634   -0.4203   -2.3324 H       1  UNL1        0.0625
     31 H           4.7663   -0.7593   -2.5273 H       1  UNL1        0.0655
     32 H           2.7497   -0.5135    1.9405 H       1  UNL1        0.0661
     33 H           7.5854   -1.2559    1.4761 H       1  UNL1        0.1166
     34 H           6.9629    0.4534    1.1922 H       1  UNL1        0.1166
     35 H          -2.7887    2.0287    1.7551 H       1  UNL1        0.0652
     36 H          -4.7699    3.4834    1.4971 H       1  UNL1        0.0619
     37 H          -6.2680    3.2719   -0.4372 H       1  UNL1        0.0633
     38 H          -5.7556    1.5795   -2.1032 H       1  UNL1        0.0830
@<TRIPOS>BOND
     1     1     2    1
     2     2     3    1
     3     3     4   am
     4     4     5    2
     5     4     6    1
     6     6     7    2
     7     7     8    1
     8     8     9   ar
     9     9    10   ar
    10    10    11   ar
    11    11    12   ar
    12    12    13   ar
    13    12    14    1
    14    14    15    1
    15    15    16    1
    16     3    17    1
    17    17    18   ar
    18    18    19   ar
    19    19    20   ar
    20    20    21   ar
    21    21    22   ar
    22    13     8   ar
    23    22    17   ar
    24    16    11    1
    25     1    23    1
    26     1    24    1
    27     1    25    1
    28     2    26    1
    29     2    27    1
    30     6    28    1
    31     7    29    1
    32     9    30    1
    33    10    31    1
    34    13    32    1
    35    15    33    1
    36    15    34    1
    37    18    35    1
    38    19    36    1
    39    20    37    1
    40    21    38    1
@<TRIPOS>MOLECULE
637566
 29 28 0 0 0
SMALL
GASTEIGER

@<TRIPOS>ATOM
      1 C           4.2760   -0.4202   -0.1844 C.3     1  UNL1       -0.0440
      2 C           2.7808   -0.1461   -0.0164 C.2     1  UNL1       -0.0796
      3 C           2.4114    1.1426    0.6094 C.3     1  UNL1       -0.0440
      4 C           1.9008   -1.0287   -0.4251 C.2     1  UNL1       -0.0850
      5 C           0.4577   -1.0333   -0.3840 C.3     1  UNL1       -0.0308
      6 C          -0.2633   -0.0115    0.4246 C.3     1  UNL1       -0.0285
      7 C          -1.7683   -0.3311    0.1688 C.2     1  UNL1       -0.0741
      8 C          -2.1753   -1.7299    0.5575 C.3     1  UNL1       -0.0437
      9 C          -2.4771    0.5715   -0.3266 C.2     1  UNL1       -0.0600
     10 C          -3.2851    1.6002   -0.8913 C.3     1  UNL1        0.0626
     11 O          -3.3801    2.7908   -0.0985 O.3     1  UNL1       -0.3910
     12 H           4.6389   -0.8199    0.8155 H       1  UNL1        0.0274
     13 H           4.8430    0.4931   -0.3926 H       1  UNL1        0.0274
     14 H           4.4566   -1.1308   -1.0065 H       1  UNL1        0.0274
     15 H           1.7720    1.0278    1.5394 H       1  UNL1        0.0274
     16 H           3.3538    1.6504    1.0307 H       1  UNL1        0.0274
     17 H           2.0437    1.8775   -0.1029 H       1  UNL1        0.0274
     18 H           2.3468   -1.9422   -0.9159 H       1  UNL1        0.0572
     19 H           0.0640   -2.0308   -0.0282 H       1  UNL1        0.0310
     20 H           0.0349   -0.9497   -1.4332 H       1  UNL1        0.0310
     21 H          -0.1677    1.0285    0.1352 H       1  UNL1        0.0313
     22 H          -0.1764   -0.2167    1.5189 H       1  UNL1        0.0313
     23 H          -3.2722   -1.7726    0.7781 H       1  UNL1        0.0274
     24 H          -1.9657   -2.4677   -0.2202 H       1  UNL1        0.0274
     25 H          -1.6720   -1.8985    1.5245 H       1  UNL1        0.0274
     26 H          -3.6132   -0.2328   -0.1378 H       1  UNL1        0.0594
     27 H          -2.7488    2.0493   -1.8288 H       1  UNL1        0.0601
     28 H          -4.2879    1.3497   -1.2493 H       1  UNL1        0.0601
     29 H          -4.1275    2.5813    0.5379 H       1  UNL1        0.2098
@<TRIPOS>BOND
     1     1     2    1
     2     2     3    1
     3     2     4    2
     4     4     5    1
     5     5     6    1
     6     6     7    1
     7     7     8    1
     8     7     9    2
     9     9    10    1
    10    10    11    1
    11     1    12    1
    12     1    13    1
    13     1    14    1
    14     3    15    1
    15     3    16    1
    16     3    17    1
    17     4    18    1
    18     5    19    1
    19     5    20    1
    20     6    21    1
    21     6    22    1
    22     8    23    1
    23     8    24    1
    24     8    25    1
    25     9    26    1
    26    10    27    1
    27    10    28    1
    28    11    29    1
@<TRIPOS>MOLECULE
884231
 48 50 0 0 0
SMALL
GASTEIGER

@<TRIPOS>ATOM
      1 C           6.8246    1.0002    0.8139 C.3     1  UNL1        0.0790
      2 O           5.4958    0.5928    1.0232 O.3     1  UNL1       -0.4914
      3 C           4.4513    0.9866    0.2121 C.ar    1  UNL1        0.1621
      4 C           4.7003    1.8123   -0.8512 C.ar    1  UNL1       -0.0163
      5 C           3.6494    2.2007   -1.6564 C.ar    1  UNL1       -0.0575
      6 C           2.3989    1.7369   -1.3464 C.ar    1  UNL1       -0.0509
      7 C           2.1332    0.8897   -0.2557 C.ar    1  UNL1        0.0205
      8 C           0.7646    0.4834   -0.0860 C.2     1  UNL1       -0.0461
      9 C           0.2730   -0.1064    0.9476 C.2     1  UNL1        0.0017
     10 C          -1.0818   -0.5474    1.1873 C.2     1  UNL1        0.2480
     11 O          -1.2086   -1.1181    2.3767 O.2     1  UNL1       -0.2699
     12 N          -2.2155   -0.4695    0.4031 N.am    1  UNL1       -0.2368
     13 C          -3.4320   -1.0264    0.9847 C.ar    1  UNL1        0.0416
     14 C          -3.7466   -2.3428    0.7825 C.ar    1  UNL1       -0.0399
     15 C          -4.9140   -2.8952    1.3352 C.ar    1  UNL1       -0.0600
     16 C          -5.7648   -2.1194    2.0925 C.ar    1  UNL1       -0.0616
     17 C          -5.4342   -0.7956    2.2872 C.ar    1  UNL1       -0.0600
     18 C          -4.2682   -0.2415    1.7358 C.ar    1  UNL1       -0.0399
     19 C          -2.2958    0.0862   -0.8820 C.ar    1  UNL1        0.0416
     20 C          -2.0833   -0.7177   -1.9956 C.ar    1  UNL1       -0.0399
     21 C          -2.1948   -0.1886   -3.2577 C.ar    1  UNL1       -0.0600
     22 C          -2.5221    1.1592   -3.4248 C.ar    1  UNL1       -0.0616
     23 C          -2.7372    1.9756   -2.3388 C.ar    1  UNL1       -0.0600
     24 C          -2.6187    1.4189   -1.0914 C.ar    1  UNL1       -0.0399
     25 C           3.1599    0.5100    0.5262 C.ar    1  UNL1        0.1686
     26 O           3.0550   -0.3374    1.6430 O.3     1  UNL1       -0.4909
     27 C           3.2554   -1.7474    1.4827 C.3     1  UNL1        0.0790
     28 H           7.4689    0.8237    1.6868 H       1  UNL1        0.0660
     29 H           7.2045    0.4110   -0.0674 H       1  UNL1        0.0660
     30 H           6.8957    2.0848    0.5342 H       1  UNL1        0.0660
     31 H           5.6859    2.1848   -1.1030 H       1  UNL1        0.0655
     32 H           3.8343    2.8510   -2.4988 H       1  UNL1        0.0619
     33 H           1.5590    2.0371   -1.9733 H       1  UNL1        0.0625
     34 H           0.0389    0.6706   -0.8957 H       1  UNL1        0.0626
     35 H           0.9621   -0.2791    1.8142 H       1  UNL1        0.0670
     36 H          -3.0685   -2.9379    0.1858 H       1  UNL1        0.0636
     37 H          -5.1277   -3.9414    1.1520 H       1  UNL1        0.0618
     38 H          -6.6706   -2.5153    2.5312 H       1  UNL1        0.0618
     39 H          -6.0813   -0.1556    2.8782 H       1  UNL1        0.0618
     40 H          -4.0037    0.7937    1.8843 H       1  UNL1        0.0636
     41 H          -1.8307   -1.7562   -1.8986 H       1  UNL1        0.0636
     42 H          -2.0364   -0.7830   -4.1700 H       1  UNL1        0.0618
     43 H          -2.6000    1.5360   -4.4298 H       1  UNL1        0.0618
     44 H          -2.9881    3.0085   -2.4538 H       1  UNL1        0.0618
     45 H          -2.7863    2.0542   -0.2348 H       1  UNL1        0.0636
     46 H           4.2611   -2.0418    1.8649 H       1  UNL1        0.0660
     47 H           2.5140   -2.2557    2.1364 H       1  UNL1        0.0660
     48 H           3.1247   -1.9885    0.4117 H       1  UNL1        0.0660
@<TRIPOS>BOND
     1     1     2    1
     2     2     3    1
     3     3     4   ar
     4     4     5   ar
     5     5     6   ar
     6     6     7   ar
     7     7     8    1
     8     8     9    2
     9     9    10    1
    10    10    11    2
    11    10    12   am
    12    12    13    1
    13    13    14   ar
    14    14    15   ar
    15    15    16   ar
    16    16    17   ar
    17    17    18   ar
    18    12    19    1
    19    19    20   ar
    20    20    21   ar
    21    21    22   ar
    22    22    23   ar
    23    23    24   ar
    24     7    25   ar
    25    25    26    1
    26    26    27    1
    27    25     3   ar
    28    18    13   ar
    29    24    19   ar
    30     1    28    1
    31     1    29    1
    32     1    30    1
    33     4    31    1
    34     5    32    1
    35     6    33    1
    36     8    34    1
    37     9    35    1
    38    14    36    1
    39    15    37    1
    40    16    38    1
    41    17    39    1
    42    18    40    1
    43    20    41    1
    44    21    42    1
    45    22    43    1
    46    23    44    1
    47    24    45    1
    48    27    46    1
    49    27    47    1
    50    27    48    1
@<TRIPOS>MOLECULE
1189562
 38 37 0 0 0
SMALL
GASTEIGER

@<TRIPOS>ATOM
      1 C           4.4856    0.9699   -0.3653 C.3     1  UNL1       -0.0653
      2 C           4.1593   -0.0721    0.6640 C.3     1  UNL1       -0.0559
      3 C           2.9507   -0.8873    0.2711 C.3     1  UNL1       -0.0529
      4 C           1.7649    0.0411    0.1272 C.3     1  UNL1       -0.0464
      5 C           0.5170   -0.7327   -0.2690 C.3     1  UNL1        0.0014
      6 P          -0.8652    0.4076   -0.4285 P.3     1  UNL1        0.0939
      7 O          -0.3297    1.7665   -0.8898 O.2     1  UNL1       -0.3205
      8 C          -1.7255    0.6883    1.1148 C.3     1  UNL1        0.0072
      9 C          -0.8202    0.5099    2.3171 C.3     1  UNL1       -0.0560
     10 C          -2.9042   -0.2344    1.3145 C.3     1  UNL1       -0.0560
     11 C          -1.9978   -0.1192   -1.7575 C.3     1  UNL1        0.0072
     12 C          -3.1046    0.8833   -1.8375 C.3     1  UNL1       -0.0560
     13 C          -2.4780   -1.5304   -1.5454 C.3     1  UNL1       -0.0560
     14 H           3.8278    1.8435   -0.1688 H       1  UNL1        0.0230
     15 H           5.5348    1.3200   -0.1415 H       1  UNL1        0.0230
     16 H           4.4471    0.5979   -1.3887 H       1  UNL1        0.0230
     17 H           4.0314    0.4204    1.6519 H       1  UNL1        0.0263
     18 H           5.0273   -0.7598    0.7830 H       1  UNL1        0.0263
     19 H           2.7670   -1.6601    1.0331 H       1  UNL1        0.0265
     20 H           3.1854   -1.3251   -0.7339 H       1  UNL1        0.0265
     21 H           1.5540    0.5554    1.0693 H       1  UNL1        0.0270
     22 H           2.0149    0.7474   -0.6904 H       1  UNL1        0.0270
     23 H           0.7288   -1.2772   -1.2254 H       1  UNL1        0.0342
     24 H           0.2596   -1.4922    0.4904 H       1  UNL1        0.0342
     25 H          -2.1326    1.7339    1.1711 H       1  UNL1        0.0372
     26 H          -0.1853    1.3940    2.4966 H       1  UNL1        0.0237
     27 H          -1.5142    0.4124    3.2027 H       1  UNL1        0.0237
     28 H          -0.2631   -0.4401    2.2811 H       1  UNL1        0.0237
     29 H          -2.5417   -1.2714    1.4104 H       1  UNL1        0.0237
     30 H          -3.3376    0.0338    2.3168 H       1  UNL1        0.0237
     31 H          -3.7028   -0.0978    0.5802 H       1  UNL1        0.0237
     32 H          -1.3757   -0.1263   -2.6918 H       1  UNL1        0.0372
     33 H          -3.0090    1.4245   -2.8184 H       1  UNL1        0.0237
     34 H          -4.0993    0.4053   -1.7343 H       1  UNL1        0.0237
     35 H          -3.0431    1.6715   -1.0590 H       1  UNL1        0.0237
     36 H          -2.3592   -2.1455   -2.4836 H       1  UNL1        0.0237
     37 H          -3.5565   -1.5818   -1.3053 H       1  UNL1        0.0237
     38 H          -1.9101   -2.0732   -0.7617 H       1  UNL1        0.0237
@<TRIPOS>BOND
     1     1     2    1
     2     2     3    1
     3     3     4    1
     4     4     5    1
     5     5     6    1
     6     6     7    2
     7     6     8    1
     8     8     9    1
     9     8    10    1
    10     6    11    1
    11    11    12    1
    12    11    13    1
    13     1    14    1
    14     1    15    1
    15     1    16    1
    16     2    17    1
    17     2    18    1
    18     3    19    1
    19     3    20    1
    20     4    21    1
    21     4    22    1
    22     5    23    1
    23     5    24    1
    24     8    25    1
    25     9    26    1
    26     9    27    1
    27     9    28    1
    28    10    29    1
    29    10    30    1
    30    10    31    1
    31    11    32    1
    32    12    33    1
    33    12    34    1
    34    12    35    1
    35    13    36    1
    36    13    37    1
    37    13    38    1
@<TRIPOS>MOLECULE
884240
 38 40 0 0 0
SMALL
GASTEIGER

@<TRIPOS>ATOM
      1 O           1.3517   -1.8721   -1.3736 O.2     1  UNL1       -0.2695
      2 C           1.2947   -0.8847   -0.5537 C.2     1  UNL1        0.2550
      3 C           2.3456    0.0807   -0.7081 C.ar    1  UNL1        0.0738
      4 C           3.3367    0.2594    0.2327 C.ar    1  UNL1        0.0545
      5 CL          3.3598   -0.7196    1.7067 Cl      1  UNL1       -0.0827
      6 C           4.3253    1.1969    0.0131 C.ar    1  UNL1       -0.0426
      7 C           4.3824    1.9817   -1.1179 C.ar    1  UNL1       -0.0590
      8 C           3.3802    1.7834   -2.0480 C.ar    1  UNL1       -0.0426
      9 C           2.3856    0.8543   -1.8445 C.ar    1  UNL1        0.0545
     10 CL          1.1700    0.7100   -3.1154 Cl      1  UNL1       -0.0827
     11 N           0.2239   -0.8750    0.3878 N.am    1  UNL1       -0.2476
     12 C          -0.0142    0.2665    1.2140 C.3     1  UNL1        0.0465
     13 C          -1.0363    1.2159    0.6967 C.ar    1  UNL1       -0.0296
     14 C          -2.3104    1.1330    1.2449 C.ar    1  UNL1       -0.0571
     15 C          -3.3295    1.9623    0.8074 C.ar    1  UNL1       -0.0615
     16 C          -3.1240    2.8984   -0.1848 C.ar    1  UNL1       -0.0617
     17 C          -1.8437    2.9613   -0.7154 C.ar    1  UNL1       -0.0615
     18 C          -0.8164    2.1350   -0.2829 C.ar    1  UNL1       -0.0571
     19 C          -0.6091   -2.0500    0.4052 C.ar    1  UNL1        0.1280
     20 C          -1.5486   -2.3061    1.3571 C.ar    1  UNL1       -0.0213
     21 C          -2.3641   -3.4335    1.3269 C.ar    1  UNL1       -0.0571
     22 C          -2.1765   -4.3131    0.2599 C.ar    1  UNL1       -0.0435
     23 C          -1.2317   -4.0593   -0.7000 C.ar    1  UNL1        0.0297
     24 N          -0.4807   -2.9524   -0.6082 N.ar    1  UNL1       -0.2399
     25 H           5.1057    1.3382    0.7604 H       1  UNL1        0.0632
     26 H           5.1746    2.7314   -1.2904 H       1  UNL1        0.0618
     27 H           3.4446    2.4161   -2.9412 H       1  UNL1        0.0632
     28 H           0.9363    0.8691    1.2571 H       1  UNL1        0.0518
     29 H          -0.2842    0.0359    2.2671 H       1  UNL1        0.0518
     30 H          -2.5980    0.4524    2.0310 H       1  UNL1        0.0621
     31 H          -4.3188    1.8940    1.2461 H       1  UNL1        0.0618
     32 H          -3.9310    3.5435   -0.5216 H       1  UNL1        0.0618
     33 H          -1.6657    3.7036   -1.5094 H       1  UNL1        0.0618
     34 H           0.1669    2.2207   -0.7215 H       1  UNL1        0.0621
     35 H          -1.6701   -1.6164    2.1988 H       1  UNL1        0.0652
     36 H          -3.1056   -3.6265    2.0867 H       1  UNL1        0.0619
     37 H          -2.8247   -5.1819    0.2583 H       1  UNL1        0.0633
     38 H          -1.1008   -4.7532   -1.5212 H       1  UNL1        0.0830
@<TRIPOS>BOND
     1     1     2    2
     2     2     3    1
     3     3     4   ar
     4     4     5    1
     5     4     6   ar
     6     6     7   ar
     7     7     8   ar
     8     8     9   ar
     9     9    10    1
    10     2    11   am
    11    11    12    1
    12    12    13    1
    13    13    14   ar
    14    14    15   ar
    15    15    16   ar
    16    16    17   ar
    17    17    18   ar
    18    11    19    1
    19    19    20   ar
    20    20    21   ar
    21    21    22   ar
    22    22    23   ar
    23    23    24   ar
    24     9     3   ar
    25    18    13   ar
    26    24    19   ar
    27     6    25    1
    28     7    26    1
    29     8    27    1
    30    12    28    1
    31    12    29    1
    32    14    30    1
    33    15    31    1
    34    16    32    1
    35    17    33    1
    36    18    34    1
    37    20    35    1
    38    21    36    1
    39    22    37    1
    40    23    38    1
@<TRIPOS>MOLECULE
CHEMBL5275109
 62 63 0 0 0
SMALL
GASTEIGER

@<TRIPOS>ATOM
      1 C          -4.0571   -2.3979    0.2896 C.3     1  UNL1       -0.0624
      2 C          -2.9763   -1.5507    0.9169 C.3     1  UNL1       -0.0432
      3 C          -3.3049   -1.4410    2.3940 C.3     1  UNL1       -0.0624
      4 C          -2.9833   -0.1321    0.3704 C.3     1  UNL1       -0.0276
      5 C          -4.3106    0.4440    0.6821 C.3     1  UNL1       -0.0490
      6 C          -5.2650    0.5820   -0.4512 C.3     1  UNL1       -0.0502
      7 C          -4.5756    1.3190   -1.5693 C.3     1  UNL1       -0.0432
      8 C          -4.1915    2.7215   -1.1870 C.3     1  UNL1       -0.0624
      9 C          -3.4135    0.5179   -2.0408 C.3     1  UNL1       -0.0391
     10 C          -2.5120   -0.0564   -1.0314 C.3     1  UNL1        0.0388
     11 C          -1.1820    0.6282   -1.1045 C.2     1  UNL1        0.2165
     12 O          -1.0772    1.6744   -1.7821 O.2     1  UNL1       -0.2755
     13 N          -0.0178    0.1622   -0.4474 N.am    1  UNL1       -0.3130
     14 C           1.2639    0.8363   -0.5277 C.3     1  UNL1        0.0342
     15 C           2.3406    0.1560    0.2222 C.3     1  UNL1        0.0638
     16 N           3.5677    0.9421    0.0869 N.am    1  UNL1       -0.3057
     17 C           4.2503    1.5412    1.1625 C.2     1  UNL1        0.2301
     18 O           3.7647    1.3845    2.3125 O.2     1  UNL1       -0.2741
     19 C           5.4924    2.3313    0.9862 C.3     1  UNL1        0.0794
     20 C           6.5914    1.5117    0.3356 C.3     1  UNL1       -0.0414
     21 N           5.9473    2.8095    2.2559 N.3     1  UNL1       -0.3202
     22 C           2.6950   -1.2024   -0.2281 C.ar    1  UNL1       -0.0257
     23 C           3.8224   -1.7634    0.3734 C.ar    1  UNL1       -0.0568
     24 C           4.2629   -3.0219    0.0288 C.ar    1  UNL1       -0.0614
     25 C           3.5887   -3.7382   -0.9177 C.ar    1  UNL1       -0.0617
     26 C           2.4676   -3.1643   -1.5073 C.ar    1  UNL1       -0.0614
     27 C           2.0232   -1.9099   -1.1681 C.ar    1  UNL1       -0.0568
     28 H          -4.1019   -2.3195   -0.8008 H       1  UNL1        0.0232
     29 H          -5.0563   -2.1745    0.7022 H       1  UNL1        0.0232
     30 H          -3.8259   -3.4617    0.5510 H       1  UNL1        0.0232
     31 H          -1.9877   -1.9957    0.8070 H       1  UNL1        0.0298
     32 H          -3.2586   -0.3944    2.7629 H       1  UNL1        0.0232
     33 H          -4.3525   -1.7899    2.6096 H       1  UNL1        0.0232
     34 H          -2.6419   -2.1182    2.9605 H       1  UNL1        0.0232
     35 H          -2.2323    0.4103    1.0218 H       1  UNL1        0.0311
     36 H          -4.2154    1.4711    1.1464 H       1  UNL1        0.0268
     37 H          -4.8516   -0.1402    1.4858 H       1  UNL1        0.0268
     38 H          -6.1096    1.2145   -0.1176 H       1  UNL1        0.0268
     39 H          -5.6369   -0.3741   -0.8503 H       1  UNL1        0.0268
     40 H          -5.3058    1.3984   -2.4065 H       1  UNL1        0.0298
     41 H          -3.9315    3.3417   -2.0650 H       1  UNL1        0.0232
     42 H          -3.3011    2.6833   -0.5330 H       1  UNL1        0.0232
     43 H          -4.9949    3.2515   -0.6392 H       1  UNL1        0.0232
     44 H          -2.8196    1.2149   -2.7061 H       1  UNL1        0.0275
     45 H          -3.7227   -0.2922   -2.7677 H       1  UNL1        0.0275
     46 H          -2.2756   -1.1265   -1.3382 H       1  UNL1        0.0397
     47 H          -0.0811   -0.6940    0.1279 H       1  UNL1        0.1488
     48 H           1.5263    1.1034   -1.5724 H       1  UNL1        0.0483
     49 H           1.1017    1.8317   -0.0169 H       1  UNL1        0.0483
     50 H           2.0335    0.1095    1.2980 H       1  UNL1        0.0564
     51 H           3.9434    1.0539   -0.8744 H       1  UNL1        0.1494
     52 H           5.2972    3.1997    0.3008 H       1  UNL1        0.0551
     53 H           7.2364    1.0228    1.0860 H       1  UNL1        0.0249
     54 H           7.2532    2.2158   -0.2219 H       1  UNL1        0.0249
     55 H           6.1782    0.7986   -0.4088 H       1  UNL1        0.0249
     56 H           5.6709    2.2104    3.0557 H       1  UNL1        0.1189
     57 H           5.7000    3.8100    2.4226 H       1  UNL1        0.1189
     58 H           4.3907   -1.2320    1.1302 H       1  UNL1        0.0621
     59 H           5.1467   -3.4461    0.5092 H       1  UNL1        0.0618
     60 H           3.9147   -4.7201   -1.2009 H       1  UNL1        0.0618
     61 H           1.9315   -3.7173   -2.2505 H       1  UNL1        0.0618
     62 H           1.1668   -1.5290   -1.6624 H       1  UNL1        0.0621
@<TRIPOS>BOND
     1     1     2    1
     2     2     3    1
     3     2     4    1
     4     4     5    1
     5     5     6    1
     6     6     7    1
     7     7     8    1
     8     7     9    1
     9     9    10    1
    10    10    11    1
    11    11    12    2
    12    11    13   am
    13    13    14    1
    14    14    15    1
    15    15    16    1
    16    16    17   am
    17    17    18    2
    18    17    19    1
    19    19    20    1
    20    19    21    1
    21    15    22    1
    22    22    23   ar
    23    23    24   ar
    24    24    25   ar
    25    25    26   ar
    26    26    27   ar
    27    10     4    1
    28    27    22   ar
    29     1    28    1
    30     1    29    1
    31     1    30    1
    32     2    31    1
    33     3    32    1
    34     3    33    1
    35     3    34    1
    36     4    35    1
    37     5    36    1
    38     5    37    1
    39     6    38    1
    40     6    39    1
    41     7    40    1
    42     8    41    1
    43     8    42    1
    44     8    43    1
    45     9    44    1
    46     9    45    1
    47    10    46    1
    48    13    47    1
    49    14    48    1
    50    14    49    1
    51    15    50    1
    52    16    51    1
    53    19    52    1
    54    20    53    1
    55    20    54    1
    56    20    55    1
    57    21    56    1
    58    21    57    1
    59    23    58    1
    60    24    59    1
    61    25    60    1
    62    26    61    1
    63    27    62    1
@<TRIPOS>MOLECULE
CHEMBL5266982
 58 60 0 0 0
SMALL
GASTEIGER

@<TRIPOS>ATOM
      1 C           4.5769    3.9487   -1.0843 C.3     1  UNL1        0.0788
      2 O           4.7187    2.5801   -0.8228 O.3     1  UNL1       -0.4950
      3 C           3.6389    1.7772   -0.4134 C.ar    1  UNL1        0.1222
      4 C           2.3787    2.3054   -0.2489 C.ar    1  UNL1       -0.0179
      5 C           1.3335    1.4782    0.1579 C.ar    1  UNL1       -0.0321
      6 C           1.5209    0.1370    0.4026 C.ar    1  UNL1        0.0779
      7 C           2.8232   -0.3552    0.2219 C.ar    1  UNL1        0.0738
      8 C           3.8714    0.4410   -0.1789 C.ar    1  UNL1        0.0057
      9 N           2.7893   -1.6661    0.5226 N.ar    1  UNL1       -0.2903
     10 C           3.9104   -2.6063    0.4829 C.3     1  UNL1        0.0404
     11 C           4.0116   -3.2448   -0.8793 C.3     1  UNL1        0.0113
     12 N           5.1583   -4.1637   -0.8165 N.3     1  UNL1       -0.3283
     13 C           1.5409   -1.9574    0.8660 C.ar    1  UNL1        0.3368
     14 O           1.1665   -3.0920    1.2035 O.2     1  UNL1       -0.2459
     15 N           0.7283   -0.8619    0.8016 N.ar    1  UNL1       -0.2303
     16 C          -0.6446   -0.8486    1.1370 C.2     1  UNL1        0.2391
     17 O          -1.1082   -1.9714    1.6250 O.2     1  UNL1       -0.2719
     18 C          -1.6490    0.1906    1.0389 C.3     1  UNL1        0.0420
     19 C          -2.8851   -0.2036    1.8264 C.3     1  UNL1       -0.0388
     20 C          -3.9542   -0.9434    1.1658 C.3     1  UNL1       -0.0432
     21 C          -4.0346   -2.4232    1.5405 C.3     1  UNL1       -0.0624
     22 C          -4.1076   -0.8190   -0.3039 C.3     1  UNL1       -0.0502
     23 C          -2.8262   -0.5798   -1.0240 C.3     1  UNL1       -0.0490
     24 C          -2.0211    0.5431   -0.3832 C.3     1  UNL1       -0.0274
     25 C          -2.8864    1.7638   -0.4334 C.3     1  UNL1       -0.0432
     26 C          -3.2704    2.1221   -1.8600 C.3     1  UNL1       -0.0624
     27 C          -2.3292    2.9794    0.2311 C.3     1  UNL1       -0.0624
     28 H           5.5954    4.3983   -1.0496 H       1  UNL1        0.0660
     29 H           4.1121    4.0660   -2.0914 H       1  UNL1        0.0660
     30 H           3.9758    4.4770   -0.2984 H       1  UNL1        0.0660
     31 H           2.1992    3.3598   -0.4346 H       1  UNL1        0.0655
     32 H           0.3539    1.8980    0.2948 H       1  UNL1        0.0640
     33 H           4.8731    0.0663   -0.3191 H       1  UNL1        0.0675
     34 H           3.6887   -3.4148    1.2152 H       1  UNL1        0.0506
     35 H           4.8220   -2.0998    0.7960 H       1  UNL1        0.0506
     36 H           3.1309   -3.8949   -1.0593 H       1  UNL1        0.0439
     37 H           4.0832   -2.5395   -1.7049 H       1  UNL1        0.0439
     38 H           5.9747   -3.7081   -0.3480 H       1  UNL1        0.1183
     39 H           5.4819   -4.4063   -1.7884 H       1  UNL1        0.1183
     40 H          -1.2904    1.1081    1.5349 H       1  UNL1        0.0399
     41 H          -3.2815    0.6894    2.3966 H       1  UNL1        0.0275
     42 H          -2.4854   -0.8563    2.6645 H       1  UNL1        0.0275
     43 H          -4.9422   -0.5344    1.6089 H       1  UNL1        0.0298
     44 H          -3.5942   -2.6279    2.5122 H       1  UNL1        0.0232
     45 H          -3.4712   -2.9710    0.7604 H       1  UNL1        0.0232
     46 H          -5.0997   -2.7328    1.4625 H       1  UNL1        0.0232
     47 H          -4.8899   -0.0711   -0.6035 H       1  UNL1        0.0268
     48 H          -4.5161   -1.7913   -0.7220 H       1  UNL1        0.0268
     49 H          -3.0667   -0.2568   -2.0590 H       1  UNL1        0.0268
     50 H          -2.2361   -1.5115   -1.1122 H       1  UNL1        0.0268
     51 H          -1.1328    0.6609   -0.9994 H       1  UNL1        0.0311
     52 H          -3.8382    1.5030    0.1137 H       1  UNL1        0.0298
     53 H          -3.2986    3.2108   -1.9760 H       1  UNL1        0.0232
     54 H          -4.2606    1.7073   -2.1144 H       1  UNL1        0.0232
     55 H          -2.5441    1.7153   -2.5870 H       1  UNL1        0.0232
     56 H          -3.1006    3.7958    0.0648 H       1  UNL1        0.0232
     57 H          -1.4208    3.3819   -0.2457 H       1  UNL1        0.0232
     58 H          -2.2727    2.8486    1.3108 H       1  UNL1        0.0232
@<TRIPOS>BOND
     1     1     2    1
     2     2     3    1
     3     3     4   ar
     4     4     5   ar
     5     5     6   ar
     6     6     7   ar
     7     7     8   ar
     8     7     9   ar
     9     9    10    1
    10    10    11    1
    11    11    12    1
    12     9    13   ar
    13    13    14    2
    14    13    15   ar
    15    15    16   am
    16    16    17    2
    17    16    18    1
    18    18    19    1
    19    19    20    1
    20    20    21    1
    21    20    22    1
    22    22    23    1
    23    23    24    1
    24    24    25    1
    25    25    26    1
    26    25    27    1
    27     8     3   ar
    28    24    18    1
    29    15     6   ar
    30     1    28    1
    31     1    29    1
    32     1    30    1
    33     4    31    1
    34     5    32    1
    35     8    33    1
    36    10    34    1
    37    10    35    1
    38    11    36    1
    39    11    37    1
    40    12    38    1
    41    12    39    1
    42    18    40    1
    43    19    41    1
    44    19    42    1
    45    20    43    1
    46    21    44    1
    47    21    45    1
    48    21    46    1
    49    22    47    1
    50    22    48    1
    51    23    49    1
    52    23    50    1
    53    24    51    1
    54    25    52    1
    55    26    53    1
    56    26    54    1
    57    26    55    1
    58    27    56    1
    59    27    57    1
    60    27    58    1
@<TRIPOS>MOLECULE
1189573
 44 43 0 0 0
SMALL
GASTEIGER

@<TRIPOS>ATOM
      1 C          -2.9521   -2.6298   -0.0165 C.3     1  UNL1       -0.0646
      2 C          -2.1487   -1.3634   -0.3489 C.3     1  UNL1       -0.0466
      3 C          -1.4026   -1.0036    0.9141 C.3     1  UNL1        0.0098
      4 C          -2.4564   -0.7608    1.9854 C.3     1  UNL1       -0.0557
      5 P          -0.4041    0.4712    0.7635 P.3     1  UNL1        0.0944
      6 O          -0.4116    1.1737    2.1216 O.2     1  UNL1       -0.3204
      7 C           1.2745    0.1783    0.2478 C.3     1  UNL1        0.0016
      8 C           1.5165   -1.2303   -0.2414 C.3     1  UNL1       -0.0440
      9 C           2.9510   -1.4384   -0.6691 C.3     1  UNL1       -0.0463
     10 C           3.8411   -1.1720    0.5257 C.3     1  UNL1       -0.0627
     11 C           3.3222   -0.5807   -1.8515 C.3     1  UNL1       -0.0627
     12 C          -1.1989    1.6525   -0.3938 C.3     1  UNL1        0.0098
     13 C          -1.0457    1.2077   -1.8213 C.3     1  UNL1       -0.0557
     14 C          -0.5523    3.0230   -0.2457 C.3     1  UNL1       -0.0466
     15 C          -0.6908    3.5695    1.1399 C.3     1  UNL1       -0.0646
     16 H          -3.7307   -2.3782    0.7329 H       1  UNL1        0.0230
     17 H          -2.2558   -3.3455    0.5031 H       1  UNL1        0.0230
     18 H          -3.3522   -3.1102   -0.9094 H       1  UNL1        0.0230
     19 H          -1.5127   -1.5245   -1.2165 H       1  UNL1        0.0269
     20 H          -2.9145   -0.5985   -0.5942 H       1  UNL1        0.0269
     21 H          -0.7857   -1.8435    1.2765 H       1  UNL1        0.0375
     22 H          -3.4462   -0.5196    1.5355 H       1  UNL1        0.0237
     23 H          -2.1780    0.1019    2.6404 H       1  UNL1        0.0237
     24 H          -2.5857   -1.6558    2.6212 H       1  UNL1        0.0237
     25 H           1.6006    0.9391   -0.5207 H       1  UNL1        0.0342
     26 H           1.9546    0.3336    1.1110 H       1  UNL1        0.0342
     27 H           0.8844   -1.4841   -1.1153 H       1  UNL1        0.0272
     28 H           1.3349   -1.9042    0.6204 H       1  UNL1        0.0272
     29 H           3.0383   -2.5005   -0.9798 H       1  UNL1        0.0296
     30 H           4.0240   -0.1019    0.6631 H       1  UNL1        0.0232
     31 H           3.3262   -1.5593    1.4342 H       1  UNL1        0.0232
     32 H           4.7498   -1.7846    0.3996 H       1  UNL1        0.0232
     33 H           2.4590   -0.0273   -2.2508 H       1  UNL1        0.0232
     34 H           4.1605    0.0936   -1.5333 H       1  UNL1        0.0232
     35 H           3.7356   -1.1908   -2.6774 H       1  UNL1        0.0232
     36 H          -2.2660    1.7710   -0.0906 H       1  UNL1        0.0375
     37 H          -0.3123    0.4120   -1.9698 H       1  UNL1        0.0237
     38 H          -0.6974    2.0688   -2.4632 H       1  UNL1        0.0237
     39 H          -2.0293    0.9082   -2.2379 H       1  UNL1        0.0237
     40 H          -1.0891    3.6880   -0.9478 H       1  UNL1        0.0269
     41 H           0.5071    2.9382   -0.5709 H       1  UNL1        0.0269
     42 H          -1.5901    3.1234    1.6011 H       1  UNL1        0.0230
     43 H           0.2139    3.3949    1.7612 H       1  UNL1        0.0230
     44 H          -0.8852    4.6588    1.0691 H       1  UNL1        0.0230
@<TRIPOS>BOND
     1     1     2    1
     2     2     3    1
     3     3     4    1
     4     3     5    1
     5     5     6    2
     6     5     7    1
     7     7     8    1
     8     8     9    1
     9     9    10    1
    10     9    11    1
    11     5    12    1
    12    12    13    1
    13    12    14    1
    14    14    15    1
    15     1    16    1
    16     1    17    1
    17     1    18    1
    18     2    19    1
    19     2    20    1
    20     3    21    1
    21     4    22    1
    22     4    23    1
    23     4    24    1
    24     7    25    1
    25     7    26    1
    26     8    27    1
    27     8    28    1
    28     9    29    1
    29    10    30    1
    30    10    31    1
    31    10    32    1
    32    11    33    1
    33    11    34    1
    34    11    35    1
    35    12    36    1
    36    13    37    1
    37    13    38    1
    38    13    39    1
    39    14    40    1
    40    14    41    1
    41    15    42    1
    42    15    43    1
    43    15    44    1
@<TRIPOS>MOLECULE
51525203
 57 59 0 0 0
SMALL
GASTEIGER

@<TRIPOS>ATOM
      1 C          -4.6375    2.2412    1.7582 C.3     1  UNL1       -0.0624
      2 C          -4.0404    2.1092    0.3915 C.3     1  UNL1       -0.0432
      3 C          -4.9903    2.6682   -0.6172 C.3     1  UNL1       -0.0624
      4 C          -3.6597    0.6740    0.0500 C.3     1  UNL1       -0.0276
      5 C          -4.9091   -0.1473    0.1157 C.3     1  UNL1       -0.0490
      6 C          -4.7037   -1.6053   -0.1306 C.3     1  UNL1       -0.0502
      7 C          -3.3996   -2.1390    0.3824 C.3     1  UNL1       -0.0432
      8 C          -2.4944   -2.4081   -0.8055 C.3     1  UNL1       -0.0624
      9 C          -2.7482   -1.2357    1.3945 C.3     1  UNL1       -0.0391
     10 C          -2.5349    0.1635    0.8838 C.3     1  UNL1        0.0392
     11 C          -1.2757    0.1855    0.0650 C.2     1  UNL1        0.2206
     12 O          -1.2675    0.5897   -1.1320 O.2     1  UNL1       -0.2752
     13 N          -0.0276   -0.2466    0.5923 N.am    1  UNL1       -0.2853
     14 C           1.1773   -0.2343   -0.1652 C.ar    1  UNL1        0.0335
     15 C           1.9943    0.8776   -0.1623 C.ar    1  UNL1       -0.0386
     16 C           3.1828    0.9210   -0.8949 C.ar    1  UNL1       -0.0333
     17 C           3.5548   -0.1662   -1.6389 C.ar    1  UNL1        0.1087
     18 S           5.0285   -0.1563   -2.5509 S.O2    1  UNL1        0.0746
     19 O           4.7676   -0.8483   -3.8587 O.2     1  UNL1       -0.1499
     20 O           5.4208    1.2882   -2.7916 O.2     1  UNL1       -0.1499
     21 N           6.2548   -0.9618   -1.6484 N.pl3   1  UNL1       -0.1836
     22 C           6.6586   -0.4693   -0.4026 C.ar    1  UNL1        0.2347
     23 N           6.0999    0.6365    0.1072 N.ar    1  UNL1       -0.2217
     24 C           6.4582    1.1304    1.2837 C.ar    1  UNL1        0.0327
     25 C           7.4419    0.4738    1.9991 C.ar    1  UNL1       -0.0253
     26 C           8.0070   -0.6542    1.4716 C.ar    1  UNL1        0.0327
     27 N           7.6233   -1.1247    0.2846 N.ar    1  UNL1       -0.2217
     28 C           2.7568   -1.2837   -1.6567 C.ar    1  UNL1       -0.0333
     29 C           1.5729   -1.3210   -0.9244 C.ar    1  UNL1       -0.0386
     30 H          -4.4869    3.3016    2.1072 H       1  UNL1        0.0232
     31 H          -4.1623    1.6017    2.5265 H       1  UNL1        0.0232
     32 H          -5.7372    2.1053    1.7147 H       1  UNL1        0.0232
     33 H          -3.1236    2.7530    0.3733 H       1  UNL1        0.0298
     34 H          -4.7124    2.4403   -1.6652 H       1  UNL1        0.0232
     35 H          -4.9932    3.7721   -0.5039 H       1  UNL1        0.0232
     36 H          -6.0313    2.3305   -0.3823 H       1  UNL1        0.0232
     37 H          -3.3503    0.7115   -1.0348 H       1  UNL1        0.0311
     38 H          -5.6195    0.2410   -0.6349 H       1  UNL1        0.0268
     39 H          -5.3741    0.0306    1.1082 H       1  UNL1        0.0268
     40 H          -5.5377   -2.1454    0.4074 H       1  UNL1        0.0268
     41 H          -4.8740   -1.8728   -1.2124 H       1  UNL1        0.0268
     42 H          -3.5554   -3.1212    0.8806 H       1  UNL1        0.0298
     43 H          -1.4386   -2.4114   -0.5425 H       1  UNL1        0.0232
     44 H          -2.7260   -1.6900   -1.6232 H       1  UNL1        0.0232
     45 H          -2.7255   -3.4211   -1.2459 H       1  UNL1        0.0232
     46 H          -1.7408   -1.6654    1.6136 H       1  UNL1        0.0275
     47 H          -3.3703   -1.2021    2.2925 H       1  UNL1        0.0275
     48 H          -2.4369    0.8215    1.7728 H       1  UNL1        0.0397
     49 H           0.0136   -0.5878    1.5734 H       1  UNL1        0.1548
     50 H           1.6931    1.7274    0.4262 H       1  UNL1        0.0637
     51 H           3.8120    1.7997   -0.8921 H       1  UNL1        0.0638
     52 H           6.7161   -1.8408   -2.0300 H       1  UNL1        0.1767
     53 H           6.0164    2.0230    1.7095 H       1  UNL1        0.0831
     54 H           7.7438    0.8652    2.9596 H       1  UNL1        0.0648
     55 H           8.7746   -1.1528    2.0469 H       1  UNL1        0.0831
     56 H           2.9915   -2.1811   -2.2254 H       1  UNL1        0.0638
     57 H           0.9238   -2.1895   -0.9199 H       1  UNL1        0.0637
@<TRIPOS>BOND
     1     1     2    1
     2     2     3    1
     3     2     4    1
     4     4     5    1
     5     5     6    1
     6     6     7    1
     7     7     8    1
     8     7     9    1
     9     9    10    1
    10    10    11    1
    11    11    12    2
    12    11    13   am
    13    13    14    1
    14    14    15   ar
    15    15    16   ar
    16    16    17   ar
    17    17    18    1
    18    18    19    2
    19    18    20    2
    20    18    21    1
    21    21    22    1
    22    22    23   ar
    23    23    24   ar
    24    24    25   ar
    25    25    26   ar
    26    26    27   ar
    27    17    28   ar
    28    28    29   ar
    29    10     4    1
    30    29    14   ar
    31    27    22   ar
    32     1    30    1
    33     1    31    1
    34     1    32    1
    35     2    33    1
    36     3    34    1
    37     3    35    1
    38     3    36    1
    39     4    37    1
    40     5    38    1
    41     5    39    1
    42     6    40    1
    43     6    41    1
    44     7    42    1
    45     8    43    1
    46     8    44    1
    47     8    45    1
    48     9    46    1
    49     9    47    1
    50    10    48    1
    51    13    49    1
    52    15    50    1
    53    16    51    1
    54    21    52    1
    55    24    53    1
    56    25    54    1
    57    26    55    1
    58    28    56    1
    59    29    57    1
@<TRIPOS>MOLECULE
884225
 43 45 0 0 0
SMALL
GASTEIGER

@<TRIPOS>ATOM
      1 C          -6.8424   -1.4344    0.4819 C.3     1  UNL1       -0.0397
      2 C          -5.3988   -1.0564    0.4058 C.ar    1  UNL1       -0.0504
      3 C          -4.4200   -1.9592    0.0700 C.ar    1  UNL1       -0.0583
      4 C          -3.0959   -1.5957    0.0043 C.ar    1  UNL1       -0.0543
      5 C          -2.6842   -0.2988    0.2741 C.ar    1  UNL1       -0.0249
      6 C          -1.2537    0.0230    0.1857 C.2     1  UNL1       -0.0497
      7 C          -0.7299    1.1863    0.4097 C.2     1  UNL1        0.0016
      8 C           0.6387    1.5959    0.3501 C.2     1  UNL1        0.2480
      9 O           0.8152    2.8570    0.6374 O.2     1  UNL1       -0.2699
     10 N           1.8072    0.9092    0.0462 N.am    1  UNL1       -0.2368
     11 C           3.0535    1.6522    0.0790 C.ar    1  UNL1        0.0416
     12 C           3.8014    1.7477    1.2175 C.ar    1  UNL1       -0.0399
     13 C           4.9945    2.4822    1.1745 C.ar    1  UNL1       -0.0600
     14 C           5.4200    3.1040    0.0100 C.ar    1  UNL1       -0.0616
     15 C           4.6626    2.9982   -1.1137 C.ar    1  UNL1       -0.0600
     16 C           3.4682    2.2618   -1.0671 C.ar    1  UNL1       -0.0399
     17 C           1.8398   -0.4570   -0.2860 C.ar    1  UNL1        0.0416
     18 C           1.9959   -1.4691    0.6553 C.ar    1  UNL1       -0.0399
     19 C           2.0548   -2.7911    0.2881 C.ar    1  UNL1       -0.0600
     20 C           1.9617   -3.1678   -1.0264 C.ar    1  UNL1       -0.0616
     21 C           1.8062   -2.1773   -1.9775 C.ar    1  UNL1       -0.0600
     22 C           1.7460   -0.8331   -1.6078 C.ar    1  UNL1       -0.0399
     23 C          -3.6366    0.6055    0.6071 C.ar    1  UNL1       -0.0543
     24 C          -4.9829    0.2281    0.6721 C.ar    1  UNL1       -0.0583
     25 H          -7.4266   -0.5770    0.0850 H       1  UNL1        0.0278
     26 H          -7.0145   -2.3180   -0.1871 H       1  UNL1        0.0278
     27 H          -7.1169   -1.6685    1.5365 H       1  UNL1        0.0278
     28 H          -4.7551   -2.9793   -0.1409 H       1  UNL1        0.0620
     29 H          -2.3582   -2.3530   -0.2677 H       1  UNL1        0.0624
     30 H          -0.5915   -0.7762   -0.0885 H       1  UNL1        0.0625
     31 H          -1.4692    1.9678    0.6878 H       1  UNL1        0.0670
     32 H           3.5086    1.2795    2.1472 H       1  UNL1        0.0636
     33 H           5.5916    2.5667    2.0571 H       1  UNL1        0.0618
     34 H           6.3457    3.6767   -0.0322 H       1  UNL1        0.0618
     35 H           4.9294    3.4545   -2.0557 H       1  UNL1        0.0618
     36 H           2.8912    2.1971   -1.9744 H       1  UNL1        0.0636
     37 H           2.0667   -1.1320    1.6925 H       1  UNL1        0.0636
     38 H           2.1757   -3.5371    1.0459 H       1  UNL1        0.0618
     39 H           2.0071   -4.2207   -1.3347 H       1  UNL1        0.0618
     40 H           1.7313   -2.4777   -3.0327 H       1  UNL1        0.0618
     41 H           1.6228   -0.0981   -2.3991 H       1  UNL1        0.0636
     42 H          -3.4089    1.6307    0.8319 H       1  UNL1        0.0624
     43 H          -5.7507    0.9531    0.9396 H       1  UNL1        0.0620
@<TRIPOS>BOND
     1     1     2    1
     2     2     3   ar
     3     3     4   ar
     4     4     5   ar
     5     5     6    1
     6     6     7    2
     7     7     8    1
     8     8     9    2
     9     8    10   am
    10    10    11    1
    11    11    12   ar
    12    12    13   ar
    13    13    14   ar
    14    14    15   ar
    15    15    16   ar
    16    10    17    1
    17    17    18   ar
    18    18    19   ar
    19    19    20   ar
    20    20    21   ar
    21    21    22   ar
    22     5    23   ar
    23    23    24   ar
    24    24     2   ar
    25    16    11   ar
    26    22    17   ar
    27     1    25    1
    28     1    26    1
    29     1    27    1
    30     3    28    1
    31     4    29    1
    32     6    30    1
    33     7    31    1
    34    12    32    1
    35    13    33    1
    36    14    34    1
    37    15    35    1
    38    16    36    1
    39    18    37    1
    40    19    38    1
    41    20    39    1
    42    21    40    1
    43    22    41    1
    44    23    42    1
    45    24    43    1
@<TRIPOS>MOLECULE
884236
 49 51 0 0 0
SMALL
GASTEIGER

@<TRIPOS>ATOM
      1 C           7.6620   -0.9870   -0.2126 C.3     1  UNL1        0.0788
      2 O           6.5461   -1.8002   -0.4411 O.3     1  UNL1       -0.4951
      3 C           5.2431   -1.3220   -0.3122 C.ar    1  UNL1        0.1203
      4 C           5.0199   -0.0271    0.0462 C.ar    1  UNL1       -0.0165
      5 C           3.7337    0.4559    0.1766 C.ar    1  UNL1       -0.0165
      6 C           2.6110   -0.3430   -0.0480 C.ar    1  UNL1        0.1214
      7 O           1.3144    0.1498    0.0851 O.3     1  UNL1       -0.4828
      8 C           1.1670    1.4829    0.4542 C.3     1  UNL1        0.1657
      9 C          -0.2230    1.9467    0.5789 C.2     1  UNL1        0.2587
     10 O          -0.3631    3.1627    0.9153 O.2     1  UNL1       -0.2715
     11 N          -1.3677    1.1772    0.3628 N.am    1  UNL1       -0.2502
     12 C          -1.1685   -0.1973   -0.0171 C.ar    1  UNL1        0.1278
     13 C          -1.0683   -0.5135   -1.3550 C.ar    1  UNL1       -0.0213
     14 C          -0.8802   -1.8347   -1.6950 C.ar    1  UNL1       -0.0571
     15 C          -0.7991   -2.7868   -0.7022 C.ar    1  UNL1       -0.0435
     16 C          -0.9012   -2.4578    0.6411 C.ar    1  UNL1        0.0297
     17 N          -1.0839   -1.1567    0.9200 N.ar    1  UNL1       -0.2399
     18 C          -2.6754    1.7343    0.5142 C.3     1  UNL1        0.0325
     19 C          -3.4923    1.0260    1.5788 C.3     1  UNL1       -0.0339
     20 C          -4.9690    1.3213    1.4208 C.3     1  UNL1       -0.0514
     21 C          -5.5120    0.7034    0.1527 C.3     1  UNL1       -0.0529
     22 C          -4.3272    0.4565   -0.7891 C.3     1  UNL1       -0.0514
     23 C          -3.4852    1.7029   -0.7598 C.3     1  UNL1       -0.0339
     24 C           2.8726   -1.6489   -0.4093 C.ar    1  UNL1       -0.0165
     25 C           4.1758   -2.1374   -0.5411 C.ar    1  UNL1       -0.0165
     26 H           8.5749   -1.5065   -0.5740 H       1  UNL1        0.0660
     27 H           7.5461   -0.0311   -0.7667 H       1  UNL1        0.0660
     28 H           7.7041   -0.8066    0.8968 H       1  UNL1        0.0660
     29 H           5.8777    0.6080    0.2246 H       1  UNL1        0.0655
     30 H           3.5672    1.4788    0.4597 H       1  UNL1        0.0655
     31 H           1.6520    2.1117   -0.3419 H       1  UNL1        0.0795
     32 H           1.7474    1.6807    1.3811 H       1  UNL1        0.0795
     33 H          -1.1360    0.2641   -2.1284 H       1  UNL1        0.0652
     34 H          -0.7991   -2.0998   -2.7495 H       1  UNL1        0.0619
     35 H          -0.6509   -3.8197   -0.9962 H       1  UNL1        0.0633
     36 H          -0.8300   -3.2464    1.3716 H       1  UNL1        0.0830
     37 H          -2.5816    2.7941    0.8077 H       1  UNL1        0.0505
     38 H          -3.3815   -0.0764    1.5421 H       1  UNL1        0.0283
     39 H          -3.1993    1.4457    2.5779 H       1  UNL1        0.0283
     40 H          -5.4795    0.8186    2.2744 H       1  UNL1        0.0266
     41 H          -5.2005    2.3948    1.5081 H       1  UNL1        0.0266
     42 H          -6.0217   -0.2648    0.3536 H       1  UNL1        0.0265
     43 H          -6.2057    1.3996   -0.3506 H       1  UNL1        0.0265
     44 H          -4.7078    0.2546   -1.8111 H       1  UNL1        0.0266
     45 H          -3.8083   -0.4439   -0.4166 H       1  UNL1        0.0266
     46 H          -4.2016    2.5642   -0.7369 H       1  UNL1        0.0283
     47 H          -2.8765    1.8497   -1.6689 H       1  UNL1        0.0283
     48 H           2.0573   -2.3162   -0.5966 H       1  UNL1        0.0655
     49 H           4.3238   -3.1602   -0.8243 H       1  UNL1        0.0655
@<TRIPOS>BOND
     1     1     2    1
     2     2     3    1
     3     3     4   ar
     4     4     5   ar
     5     5     6   ar
     6     6     7    1
     7     7     8    1
     8     8     9    1
     9     9    10    2
    10     9    11   am
    11    11    12    1
    12    12    13   ar
    13    13    14   ar
    14    14    15   ar
    15    15    16   ar
    16    16    17   ar
    17    11    18    1
    18    18    19    1
    19    19    20    1
    20    20    21    1
    21    21    22    1
    22    22    23    1
    23     6    24   ar
    24    24    25   ar
    25    25     3   ar
    26    17    12   ar
    27    23    18    1
    28     1    26    1
    29     1    27    1
    30     1    28    1
    31     4    29    1
    32     5    30    1
    33     8    31    1
    34     8    32    1
    35    13    33    1
    36    14    34    1
    37    15    35    1
    38    16    36    1
    39    18    37    1
    40    19    38    1
    41    19    39    1
    42    20    40    1
    43    20    41    1
    44    21    42    1
    45    21    43    1
    46    22    44    1
    47    22    45    1
    48    23    46    1
    49    23    47    1
    50    24    48    1
    51    25    49    1
@<TRIPOS>MOLECULE
884204
 45 47 0 0 0
SMALL
GASTEIGER

@<TRIPOS>ATOM
      1 C          -2.3676    2.7113   -0.6544 C.3     1  UNL1       -0.0467
      2 C          -1.5199    1.4896   -0.9353 C.3     1  UNL1        0.0210
      3 C          -1.8499    0.8663   -2.2849 C.3     1  UNL1       -0.0467
      4 N          -1.7614    0.5355    0.1246 N.am    1  UNL1       -0.2912
      5 C          -3.1310    0.1694    0.3804 C.3     1  UNL1        0.0403
      6 C          -3.7225   -0.9357   -0.3286 C.ar    1  UNL1       -0.0301
      7 C          -4.5122   -0.7745   -1.4546 C.ar    1  UNL1       -0.0571
      8 C          -5.0212   -1.8914   -2.0641 C.ar    1  UNL1       -0.0615
      9 C          -4.7702   -3.1603   -1.5890 C.ar    1  UNL1       -0.0617
     10 C          -3.9801   -3.3503   -0.4584 C.ar    1  UNL1       -0.0615
     11 C          -3.4715   -2.2277    0.1496 C.ar    1  UNL1       -0.0571
     12 C          -0.6865    0.0378    0.8860 C.2     1  UNL1        0.2400
     13 O          -0.8907   -0.7809    1.8318 O.2     1  UNL1       -0.2706
     14 C           0.6850    0.4201    0.6423 C.2     1  UNL1        0.0009
     15 C           1.6839   -0.0761    1.3926 C.2     1  UNL1       -0.0496
     16 C           3.0498    0.2870    1.1710 C.ar    1  UNL1       -0.0212
     17 C           3.5230    1.1453    0.2173 C.ar    1  UNL1       -0.0509
     18 C           4.8907    1.4230    0.0980 C.ar    1  UNL1       -0.0156
     19 C           5.8167    0.8435    0.9361 C.ar    1  UNL1        0.1663
     20 C           5.3369   -0.0253    1.9016 C.ar    1  UNL1        0.1668
     21 C           3.9937   -0.2968    2.0171 C.ar    1  UNL1       -0.0090
     22 O           6.4579   -0.4767    2.6174 O.3     1  UNL1       -0.4526
     23 C           7.5882   -0.3038    1.7879 C.3     1  UNL1        0.2332
     24 O           7.2065    0.8924    1.0939 O.3     1  UNL1       -0.4526
     25 H          -1.8962    3.6397   -1.0502 H       1  UNL1        0.0247
     26 H          -2.4019    2.8312    0.4497 H       1  UNL1        0.0247
     27 H          -3.3996    2.5871   -1.0818 H       1  UNL1        0.0247
     28 H          -0.4602    1.8128   -1.0186 H       1  UNL1        0.0495
     29 H          -1.8255   -0.2124   -2.1681 H       1  UNL1        0.0247
     30 H          -1.0083    1.1215   -2.9819 H       1  UNL1        0.0247
     31 H          -2.7953    1.1901   -2.7053 H       1  UNL1        0.0247
     32 H          -3.2093   -0.0499    1.4870 H       1  UNL1        0.0514
     33 H          -3.7764    1.0885    0.2615 H       1  UNL1        0.0514
     34 H          -4.6977    0.2282   -1.7887 H       1  UNL1        0.0621
     35 H          -5.6351   -1.7513   -2.9418 H       1  UNL1        0.0618
     36 H          -5.1698   -4.0480   -2.0666 H       1  UNL1        0.0618
     37 H          -3.7954   -4.3373   -0.1032 H       1  UNL1        0.0618
     38 H          -2.8622   -2.4119    1.0356 H       1  UNL1        0.0621
     39 H           1.0188    1.0989   -0.1219 H       1  UNL1        0.0670
     40 H           1.4150   -0.7609    2.1707 H       1  UNL1        0.0625
     41 H           2.8455    1.6251   -0.4629 H       1  UNL1        0.0625
     42 H           5.2602    2.1061   -0.6622 H       1  UNL1        0.0655
     43 H           3.6792   -0.9847    2.7916 H       1  UNL1        0.0661
     44 H           8.5111   -0.1309    2.3670 H       1  UNL1        0.1166
     45 H           7.6557   -1.1636    1.1128 H       1  UNL1        0.1166
@<TRIPOS>BOND
     1     1     2    1
     2     2     3    1
     3     2     4    1
     4     4     5    1
     5     5     6    1
     6     6     7   ar
     7     7     8   ar
     8     8     9   ar
     9     9    10   ar
    10    10    11   ar
    11     4    12   am
    12    12    13    2
    13    12    14    1
    14    14    15    2
    15    15    16    1
    16    16    17   ar
    17    17    18   ar
    18    18    19   ar
    19    19    20   ar
    20    20    21   ar
    21    20    22    1
    22    22    23    1
    23    23    24    1
    24    11     6   ar
    25    21    16   ar
    26    24    19    1
    27     1    25    1
    28     1    26    1
    29     1    27    1
    30     2    28    1
    31     3    29    1
    32     3    30    1
    33     3    31    1
    34     5    32    1
    35     5    33    1
    36     7    34    1
    37     8    35    1
    38     9    36    1
    39    10    37    1
    40    11    38    1
    41    14    39    1
    42    15    40    1
    43    17    41    1
    44    18    42    1
    45    21    43    1
    46    23    44    1
    47    23    45    1
@<TRIPOS>MOLECULE
CHEMBL4102033
 41 43 0 0 0
SMALL
GASTEIGER

@<TRIPOS>ATOM
      1 C           5.4215    0.1949    1.9268 C.3     1  UNL1       -0.0397
      2 C           4.4263   -0.0689    0.8391 C.ar    1  UNL1       -0.0502
      3 C           4.7628   -0.8104   -0.2733 C.ar    1  UNL1       -0.0554
      4 C           3.8433   -1.0485   -1.2674 C.ar    1  UNL1       -0.0197
      5 C           2.5337   -0.5582   -1.2059 C.ar    1  UNL1        0.1212
      6 O           1.6477   -0.8217   -2.2289 O.3     1  UNL1       -0.4828
      7 C           0.3026   -0.3841   -2.2365 C.3     1  UNL1        0.1658
      8 C          -0.4806   -0.9553   -1.1411 C.2     1  UNL1        0.2599
      9 O           0.1123   -1.7894   -0.3665 O.2     1  UNL1       -0.2714
     10 N          -1.8297   -0.6574   -0.8830 N.am    1  UNL1       -0.2326
     11 C          -2.5528    0.3160   -1.6506 C.3     1  UNL1        0.0538
     12 C          -2.4340    1.6352   -0.9854 C.ar    1  UNL1        0.0076
     13 C          -1.6320    2.7130   -1.1222 C.ar    1  UNL1       -0.0500
     14 C          -1.8180    3.7623   -0.2964 C.ar    1  UNL1       -0.0544
     15 C          -2.7872    3.7089    0.6314 C.ar    1  UNL1       -0.0240
     16 S          -3.4871    2.0954    0.3388 S.2     1  UNL1       -0.1000
     17 C          -2.5457   -1.3104    0.1878 C.ar    1  UNL1        0.2245
     18 N          -3.1975   -2.4510   -0.0588 N.ar    1  UNL1       -0.2224
     19 C          -3.8837   -3.1258    0.8582 C.ar    1  UNL1        0.0326
     20 C          -3.9239   -2.6157    2.1412 C.ar    1  UNL1       -0.0253
     21 C          -3.2568   -1.4391    2.4146 C.ar    1  UNL1        0.0326
     22 N          -2.5798   -0.8086    1.4309 N.ar    1  UNL1       -0.2224
     23 C           2.2064    0.1792   -0.0965 C.ar    1  UNL1       -0.0197
     24 C           3.1424    0.4223    0.9175 C.ar    1  UNL1       -0.0554
     25 H           4.9840    0.9636    2.6068 H       1  UNL1        0.0278
     26 H           6.3059    0.6455    1.4274 H       1  UNL1        0.0278
     27 H           5.6935   -0.7150    2.4748 H       1  UNL1        0.0278
     28 H           5.7813   -1.1904   -0.3188 H       1  UNL1        0.0621
     29 H           4.1013   -1.6271   -2.1382 H       1  UNL1        0.0654
     30 H           0.2728    0.7211   -2.1754 H       1  UNL1        0.0795
     31 H          -0.1734   -0.6389   -3.2242 H       1  UNL1        0.0795
     32 H          -3.6131    0.0257   -1.8083 H       1  UNL1        0.0524
     33 H          -2.1074    0.4120   -2.6621 H       1  UNL1        0.0524
     34 H          -0.8478    2.7118   -1.9191 H       1  UNL1        0.0626
     35 H          -1.1850    4.6883   -0.3576 H       1  UNL1        0.0623
     36 H          -3.1178    4.4070    1.3857 H       1  UNL1        0.0693
     37 H          -4.4088   -4.0367    0.6769 H       1  UNL1        0.0831
     38 H          -4.4581   -3.1071    2.9307 H       1  UNL1        0.0648
     39 H          -3.2991   -1.0568    3.4193 H       1  UNL1        0.0831
     40 H           1.2175    0.6042    0.0164 H       1  UNL1        0.0654
     41 H           2.8639    1.0102    1.7922 H       1  UNL1        0.0621
@<TRIPOS>BOND
     1     1     2    1
     2     2     3   ar
     3     3     4   ar
     4     4     5   ar
     5     5     6    1
     6     6     7    1
     7     7     8    1
     8     8     9    2
     9     8    10   am
    10    10    11    1
    11    11    12    1
    12    12    13   ar
    13    13    14   ar
    14    14    15   ar
    15    15    16   ar
    16    10    17    1
    17    17    18   ar
    18    18    19   ar
    19    19    20   ar
    20    20    21   ar
    21    21    22   ar
    22     5    23   ar
    23    23    24   ar
    24    24     2   ar
    25    16    12   ar
    26    22    17   ar
    27     1    25    1
    28     1    26    1
    29     1    27    1
    30     3    28    1
    31     4    29    1
    32     7    30    1
    33     7    31    1
    34    11    32    1
    35    11    33    1
    36    13    34    1
    37    14    35    1
    38    15    36    1
    39    19    37    1
    40    20    38    1
    41    21    39    1
    42    23    40    1
    43    24    41    1
@<TRIPOS>MOLECULE
CHEMBL4062360
 56 57 0 0 0
SMALL
GASTEIGER

@<TRIPOS>ATOM
      1 C           6.9572    1.5007    1.5071 C.2     1  UNL1       -0.1023
      2 C           5.7563    1.2838    2.0092 C.2     1  UNL1       -0.0868
      3 C           4.5880    2.0790    1.5518 C.3     1  UNL1       -0.0095
      4 C           3.5358    1.1952    0.9545 C.ar    1  UNL1       -0.0365
      5 C           2.5409    0.6565    1.7399 C.ar    1  UNL1       -0.0126
      6 C           1.5549   -0.1714    1.1809 C.ar    1  UNL1        0.1655
      7 O           0.5665   -0.7016    1.9873 O.3     1  UNL1       -0.4913
      8 C           0.5571   -0.4088    3.3533 C.3     1  UNL1        0.0790
      9 C           1.5588   -0.4644   -0.1650 C.ar    1  UNL1        0.2041
     10 O           0.5938   -1.2784   -0.7317 O.3     1  UNL1       -0.4792
     11 C          -0.6338   -0.8260   -1.2709 C.3     1  UNL1        0.1278
     12 C          -0.6282   -0.9772   -2.7724 C.3     1  UNL1       -0.0250
     13 C          -1.7776   -1.5266   -0.6012 C.3     1  UNL1        0.1198
     14 O          -1.7727   -2.8825   -0.7301 O.3     1  UNL1       -0.3715
     15 C          -1.5835   -3.6109    0.4165 C.3     1  UNL1        0.0374
     16 C          -3.0966   -0.8955   -0.8566 C.ar    1  UNL1       -0.0117
     17 C          -3.8980   -1.2827   -1.9120 C.ar    1  UNL1       -0.0523
     18 C          -5.1322   -0.6871   -2.1509 C.ar    1  UNL1       -0.0162
     19 C          -5.5985    0.3177   -1.3340 C.ar    1  UNL1        0.1585
     20 O          -6.8154    0.9495   -1.5178 O.3     1  UNL1       -0.5033
     21 C          -4.8210    0.7202   -0.2787 C.ar    1  UNL1        0.1616
     22 O          -5.2348    1.7127    0.5636 O.3     1  UNL1       -0.4914
     23 C          -4.5184    2.1955    1.6658 C.3     1  UNL1        0.0790
     24 C          -3.6000    0.1189   -0.0564 C.ar    1  UNL1       -0.0106
     25 C           2.5613    0.0823   -0.9379 C.ar    1  UNL1        0.1655
     26 O           2.5610   -0.2166   -2.2925 O.3     1  UNL1       -0.4913
     27 C           3.5919    0.3382   -3.1178 C.3     1  UNL1        0.0790
     28 C           3.5493    0.9088   -0.3918 C.ar    1  UNL1       -0.0126
     29 H           7.0876    2.2738    0.7479 H       1  UNL1        0.0532
     30 H           7.7865    0.9101    1.8563 H       1  UNL1        0.0532
     31 H           5.6251    0.5241    2.7560 H       1  UNL1        0.0570
     32 H           4.1654    2.6456    2.4101 H       1  UNL1        0.0355
     33 H           4.9494    2.8385    0.8338 H       1  UNL1        0.0355
     34 H           2.5251    0.8782    2.7994 H       1  UNL1        0.0658
     35 H           1.5225   -0.7201    3.8356 H       1  UNL1        0.0660
     36 H          -0.2363   -1.0001    3.8341 H       1  UNL1        0.0660
     37 H           0.3350    0.6625    3.5643 H       1  UNL1        0.0660
     38 H          -0.6676    0.2687   -1.0804 H       1  UNL1        0.0760
     39 H          -1.6532   -0.7830   -3.1521 H       1  UNL1        0.0266
     40 H          -0.1823   -1.9038   -3.1292 H       1  UNL1        0.0266
     41 H          -0.0205   -0.1433   -3.1851 H       1  UNL1        0.0266
     42 H          -1.6109   -1.3632    0.5048 H       1  UNL1        0.0683
     43 H          -1.5843   -4.6889    0.2828 H       1  UNL1        0.0524
     44 H          -2.2616   -3.3213    1.2494 H       1  UNL1        0.0524
     45 H          -0.5542   -3.3411    0.7919 H       1  UNL1        0.0524
     46 H          -3.5867   -2.0531   -2.5691 H       1  UNL1        0.0622
     47 H          -5.7522   -0.9979   -2.9808 H       1  UNL1        0.0655
     48 H          -7.4116    1.0374   -0.7100 H       1  UNL1        0.2923
     49 H          -4.4517    1.4578    2.4890 H       1  UNL1        0.0660
     50 H          -3.4548    2.3507    1.3195 H       1  UNL1        0.0660
     51 H          -4.8557    3.1748    2.0186 H       1  UNL1        0.0660
     52 H          -2.9925    0.4409    0.7771 H       1  UNL1        0.0659
     53 H           4.5607   -0.1568   -2.9000 H       1  UNL1        0.0660
     54 H           3.6764    1.4283   -2.9588 H       1  UNL1        0.0660
     55 H           3.3591    0.1309   -4.1895 H       1  UNL1        0.0660
     56 H           4.3216    1.3213   -1.0266 H       1  UNL1        0.0658
@<TRIPOS>BOND
     1     1     2    2
     2     2     3    1
     3     3     4    1
     4     4     5   ar
     5     5     6   ar
     6     6     7    1
     7     7     8    1
     8     6     9   ar
     9     9    10    1
    10    10    11    1
    11    11    12    1
    12    11    13    1
    13    13    14    1
    14    14    15    1
    15    13    16    1
    16    16    17   ar
    17    17    18   ar
    18    18    19   ar
    19    19    20    1
    20    19    21   ar
    21    21    22    1
    22    22    23    1
    23    21    24   ar
    24     9    25   ar
    25    25    26    1
    26    26    27    1
    27    25    28   ar
    28    28     4   ar
    29    24    16   ar
    30     1    29    1
    31     1    30    1
    32     2    31    1
    33     3    32    1
    34     3    33    1
    35     5    34    1
    36     8    35    1
    37     8    36    1
    38     8    37    1
    39    11    38    1
    40    12    39    1
    41    12    40    1
    42    12    41    1
    43    13    42    1
    44    15    43    1
    45    15    44    1
    46    15    45    1
    47    17    46    1
    48    18    47    1
    49    20    48    1
    50    23    49    1
    51    23    50    1
    52    23    51    1
    53    24    52    1
    54    27    53    1
    55    27    54    1
    56    27    55    1
    57    28    56    1
@<TRIPOS>MOLECULE
884233
 51 53 0 0 0
SMALL
GASTEIGER

@<TRIPOS>ATOM
      1 C           7.9358    0.7293    0.7659 C.3     1  UNL1        0.0788
      2 O           7.1888   -0.3646    0.2696 O.3     1  UNL1       -0.4951
      3 C           5.8774   -0.2206   -0.1721 C.ar    1  UNL1        0.1201
      4 C           5.1494   -1.2748   -0.6531 C.ar    1  UNL1       -0.0197
      5 C           3.8509   -1.1094   -1.0857 C.ar    1  UNL1       -0.0551
      6 C           3.2271    0.1198   -1.0547 C.ar    1  UNL1       -0.0467
      7 C           1.8309    0.2076   -1.5386 C.3     1  UNL1       -0.0194
      8 C           0.8339   -0.0273   -0.4320 C.3     1  UNL1        0.0285
      9 C          -0.5300    0.0772   -0.9960 C.2     1  UNL1        0.2214
     10 O          -0.6465    0.3278   -2.2221 O.2     1  UNL1       -0.2752
     11 N          -1.7015   -0.0990   -0.1841 N.am    1  UNL1       -0.2530
     12 C          -1.5119   -0.3803    1.1939 C.ar    1  UNL1        0.1277
     13 C          -1.4256    0.6331    2.1259 C.ar    1  UNL1       -0.0213
     14 C          -1.2404    0.3733    3.4762 C.ar    1  UNL1       -0.0571
     15 C          -1.1394   -0.9223    3.9036 C.ar    1  UNL1       -0.0435
     16 C          -1.2278   -1.9250    2.9579 C.ar    1  UNL1        0.0297
     17 N          -1.4094   -1.6432    1.6416 N.ar    1  UNL1       -0.2399
     18 C          -2.9808    0.0150   -0.7901 C.3     1  UNL1        0.0324
     19 C          -3.8236    1.1330   -0.1978 C.3     1  UNL1       -0.0339
     20 C          -4.9599    1.3698   -1.1686 C.3     1  UNL1       -0.0514
     21 C          -5.7586    0.1427   -1.4440 C.3     1  UNL1       -0.0529
     22 C          -4.9539   -1.0915   -1.6742 C.3     1  UNL1       -0.0514
     23 C          -3.8187   -1.2421   -0.6675 C.3     1  UNL1       -0.0339
     24 C           3.9367    1.1810   -0.5789 C.ar    1  UNL1       -0.0551
     25 C           5.2408    1.0163   -0.1441 C.ar    1  UNL1       -0.0197
     26 H           8.1972    1.3922   -0.0925 H       1  UNL1        0.0660
     27 H           7.3037    1.3062    1.4929 H       1  UNL1        0.0660
     28 H           8.8728    0.3916    1.2520 H       1  UNL1        0.0660
     29 H           5.6545   -2.2476   -0.6735 H       1  UNL1        0.0654
     30 H           3.3477   -2.0133   -1.4545 H       1  UNL1        0.0621
     31 H           1.7219   -0.5144   -2.3700 H       1  UNL1        0.0318
     32 H           1.6011    1.2114   -1.9665 H       1  UNL1        0.0318
     33 H           0.9433    0.8477    0.2707 H       1  UNL1        0.0362
     34 H           1.0029   -0.9869    0.0933 H       1  UNL1        0.0362
     35 H          -1.5007    1.6666    1.8267 H       1  UNL1        0.0652
     36 H          -1.1742    1.1760    4.1983 H       1  UNL1        0.0619
     37 H          -0.9959   -1.1122    4.9531 H       1  UNL1        0.0633
     38 H          -1.1455   -2.9358    3.3185 H       1  UNL1        0.0830
     39 H          -2.8935    0.2378   -1.8722 H       1  UNL1        0.0505
     40 H          -3.2679    2.0601   -0.0517 H       1  UNL1        0.0283
     41 H          -4.2794    0.7210    0.7317 H       1  UNL1        0.0283
     42 H          -5.6639    2.1470   -0.7721 H       1  UNL1        0.0266
     43 H          -4.4990    1.7517   -2.1177 H       1  UNL1        0.0266
     44 H          -6.3413    0.3342   -2.3926 H       1  UNL1        0.0265
     45 H          -6.5374   -0.0215   -0.6581 H       1  UNL1        0.0265
     46 H          -5.6237   -1.9687   -1.5489 H       1  UNL1        0.0266
     47 H          -4.4733   -1.0666   -2.6722 H       1  UNL1        0.0266
     48 H          -3.2612   -2.1538   -0.8872 H       1  UNL1        0.0283
     49 H          -4.2006   -1.2643    0.3744 H       1  UNL1        0.0283
     50 H           3.4661    2.1461   -0.5477 H       1  UNL1        0.0621
     51 H           5.8025    1.8699    0.2351 H       1  UNL1        0.0654
@<TRIPOS>BOND
     1     1     2    1
     2     2     3    1
     3     3     4   ar
     4     4     5   ar
     5     5     6   ar
     6     6     7    1
     7     7     8    1
     8     8     9    1
     9     9    10    2
    10     9    11   am
    11    11    12    1
    12    12    13   ar
    13    13    14   ar
    14    14    15   ar
    15    15    16   ar
    16    16    17   ar
    17    11    18    1
    18    18    19    1
    19    19    20    1
    20    20    21    1
    21    21    22    1
    22    22    23    1
    23     6    24   ar
    24    24    25   ar
    25    25     3   ar
    26    17    12   ar
    27    23    18    1
    28     1    26    1
    29     1    27    1
    30     1    28    1
    31     4    29    1
    32     5    30    1
    33     7    31    1
    34     7    32    1
    35     8    33    1
    36     8    34    1
    37    13    35    1
    38    14    36    1
    39    15    37    1
    40    16    38    1
    41    18    39    1
    42    19    40    1
    43    19    41    1
    44    20    42    1
    45    20    43    1
    46    21    44    1
    47    21    45    1
    48    22    46    1
    49    22    47    1
    50    23    48    1
    51    23    49    1
    52    24    50    1
    53    25    51    1
@<TRIPOS>MOLECULE
884214
 47 49 0 0 0
SMALL
GASTEIGER

@<TRIPOS>ATOM
      1 C           6.8967    1.7228   -1.8104 C.3     1  UNL1        0.0788
      2 O           6.7542    0.3899   -1.3570 O.3     1  UNL1       -0.4951
      3 C           5.5104    0.0056   -0.8775 C.ar    1  UNL1        0.1201
      4 C           4.4388    0.8697   -0.8340 C.ar    1  UNL1       -0.0194
      5 C           3.2038    0.4282   -0.3394 C.ar    1  UNL1       -0.0511
      6 C           3.0463   -0.8557    0.1032 C.ar    1  UNL1       -0.0246
      7 C           1.7856   -1.3250    0.6137 C.2     1  UNL1       -0.0497
      8 C           0.6826   -0.5987    0.7090 C.2     1  UNL1        0.0012
      9 C          -0.5618   -1.1530    1.2411 C.2     1  UNL1        0.2440
     10 O          -0.6683   -2.3377    1.6382 O.2     1  UNL1       -0.2703
     11 N          -1.7035   -0.3176    1.3139 N.am    1  UNL1       -0.2636
     12 C          -2.9792   -0.7796    1.8250 C.3     1  UNL1        0.0451
     13 C          -3.8490   -1.3450    0.7649 C.ar    1  UNL1       -0.0297
     14 C          -4.7443   -0.5563    0.0481 C.ar    1  UNL1       -0.0571
     15 C          -5.5466   -1.1181   -0.9407 C.ar    1  UNL1       -0.0615
     16 C          -5.4792   -2.4593   -1.2370 C.ar    1  UNL1       -0.0617
     17 C          -4.6020   -3.2502   -0.5398 C.ar    1  UNL1       -0.0615
     18 C          -3.8185   -2.6826    0.4310 C.ar    1  UNL1       -0.0571
     19 C          -1.6278    1.0347    0.8739 C.ar    1  UNL1        0.0369
     20 C          -1.2778    2.0535    1.7249 C.ar    1  UNL1       -0.0403
     21 C          -1.2063    3.3712    1.2870 C.ar    1  UNL1       -0.0600
     22 C          -1.5028    3.6043   -0.0382 C.ar    1  UNL1       -0.0616
     23 C          -1.8527    2.5855   -0.8888 C.ar    1  UNL1       -0.0600
     24 C          -1.9241    1.2792   -0.4571 C.ar    1  UNL1       -0.0403
     25 C           4.1186   -1.7107    0.0566 C.ar    1  UNL1       -0.0511
     26 C           5.3450   -1.2855   -0.4304 C.ar    1  UNL1       -0.0194
     27 H           7.8637    1.8268   -2.3458 H       1  UNL1        0.0660
     28 H           6.0839    1.9144   -2.5385 H       1  UNL1        0.0660
     29 H           6.8023    2.4663   -0.9956 H       1  UNL1        0.0660
     30 H           4.5571    1.8967   -1.1858 H       1  UNL1        0.0654
     31 H           2.4320    1.1636   -0.3430 H       1  UNL1        0.0625
     32 H           1.6970   -2.3685    0.9620 H       1  UNL1        0.0625
     33 H           0.7304    0.4260    0.3784 H       1  UNL1        0.0670
     34 H          -3.4840    0.0877    2.2913 H       1  UNL1        0.0518
     35 H          -2.8426   -1.5340    2.6271 H       1  UNL1        0.0518
     36 H          -4.7854    0.4962    0.2930 H       1  UNL1        0.0621
     37 H          -6.2465   -0.4806   -1.4952 H       1  UNL1        0.0618
     38 H          -6.0878   -2.9207   -1.9968 H       1  UNL1        0.0618
     39 H          -4.5139   -4.3272   -0.7425 H       1  UNL1        0.0618
     40 H          -3.1393   -3.3357    0.9598 H       1  UNL1        0.0621
     41 H          -1.0536    1.8155    2.7608 H       1  UNL1        0.0636
     42 H          -0.9290    4.1242    1.9912 H       1  UNL1        0.0618
     43 H          -1.4529    4.6225   -0.3981 H       1  UNL1        0.0618
     44 H          -2.0807    2.7937   -1.9238 H       1  UNL1        0.0618
     45 H          -2.1985    0.4682   -1.1172 H       1  UNL1        0.0636
     46 H           4.0167   -2.7470    0.4065 H       1  UNL1        0.0625
     47 H           6.1927   -1.9574   -0.4685 H       1  UNL1        0.0654
@<TRIPOS>BOND
     1     1     2    1
     2     2     3    1
     3     3     4   ar
     4     4     5   ar
     5     5     6   ar
     6     6     7    1
     7     7     8    2
     8     8     9    1
     9     9    10    2
    10     9    11   am
    11    11    12    1
    12    12    13    1
    13    13    14   ar
    14    14    15   ar
    15    15    16   ar
    16    16    17   ar
    17    17    18   ar
    18    11    19    1
    19    19    20   ar
    20    20    21   ar
    21    21    22   ar
    22    22    23   ar
    23    23    24   ar
    24     6    25   ar
    25    25    26   ar
    26    26     3   ar
    27    18    13   ar
    28    24    19   ar
    29     1    27    1
    30     1    28    1
    31     1    29    1
    32     4    30    1
    33     5    31    1
    34     7    32    1
    35     8    33    1
    36    12    34    1
    37    12    35    1
    38    14    36    1
    39    15    37    1
    40    16    38    1
    41    17    39    1
    42    18    40    1
    43    20    41    1
    44    21    42    1
    45    22    43    1
    46    23    44    1
    47    24    45    1
    48    25    46    1
    49    26    47    1
@<TRIPOS>MOLECULE
884181
 33 34 0 0 0
SMALL
GASTEIGER

@<TRIPOS>ATOM
      1 C          -2.5854    3.4157   -1.4427 C.3     1  UNL1        0.0791
      2 O          -2.3942    2.1147   -0.9244 O.3     1  UNL1       -0.4888
      3 C          -1.1480    1.5910   -0.6738 C.ar    1  UNL1        0.1999
      4 C          -0.0238    2.3443   -0.9295 C.ar    1  UNL1        0.0770
      5 N           1.2248    1.8543   -0.6920 N.ar    1  UNL1       -0.2305
      6 C           1.3112    0.6060   -0.1982 C.ar    1  UNL1        0.1820
      7 C           2.6480    0.0330    0.0751 C.ar    1  UNL1        0.1079
      8 C           3.7690    0.7656   -0.1727 C.ar    1  UNL1       -0.0326
      9 C           4.9951    0.2204    0.0857 C.ar    1  UNL1       -0.0582
     10 C           5.0970   -1.0659    0.5951 C.ar    1  UNL1       -0.0436
     11 C           3.9379   -1.7671    0.8292 C.ar    1  UNL1        0.0284
     12 N           2.7404   -1.2151    0.5691 N.ar    1  UNL1       -0.2518
     13 N           0.2085   -0.1390    0.0551 N.ar    1  UNL1       -0.1884
     14 C          -1.0411    0.3142   -0.1680 C.ar    1  UNL1        0.2617
     15 O          -2.1824   -0.4305    0.0838 O.3     1  UNL1       -0.4711
     16 C          -2.2031   -1.7206    0.5902 C.3     1  UNL1        0.0964
     17 C          -2.9579   -2.6020   -0.3984 C.3     1  UNL1       -0.0280
     18 C          -2.9612   -1.7028    1.9097 C.3     1  UNL1       -0.0280
     19 H          -2.3025    3.4585   -2.5189 H       1  UNL1        0.0660
     20 H          -2.0172    4.1777   -0.8528 H       1  UNL1        0.0660
     21 H          -3.6544    3.7013   -1.3642 H       1  UNL1        0.0660
     22 H          -0.1205    3.3435   -1.3258 H       1  UNL1        0.0869
     23 H           3.6641    1.7667   -0.5701 H       1  UNL1        0.0640
     24 H           5.8653    0.8331   -0.1240 H       1  UNL1        0.0619
     25 H           6.0830   -1.4771    0.7922 H       1  UNL1        0.0633
     26 H           4.0107   -2.7762    1.2286 H       1  UNL1        0.0830
     27 H          -1.2200   -2.1570    0.7970 H       1  UNL1        0.0728
     28 H          -2.8493   -3.6769   -0.1029 H       1  UNL1        0.0265
     29 H          -4.0012   -2.3116   -0.5068 H       1  UNL1        0.0265
     30 H          -2.4630   -2.5138   -1.3871 H       1  UNL1        0.0265
     31 H          -2.2285   -1.5811    2.7473 H       1  UNL1        0.0265
     32 H          -3.6154   -0.7904    1.9627 H       1  UNL1        0.0265
     33 H          -3.5859   -2.6125    2.0316 H       1  UNL1        0.0265
@<TRIPOS>BOND
     1     1     2    1
     2     2     3    1
     3     3     4   ar
     4     4     5   ar
     5     5     6   ar
     6     6     7    1
     7     7     8   ar
     8     8     9   ar
     9     9    10   ar
    10    10    11   ar
    11    11    12   ar
    12     6    13   ar
    13    13    14   ar
    14    14    15    1
    15    15    16    1
    16    16    17    1
    17    16    18    1
    18    14     3   ar
    19    12     7   ar
    20     1    19    1
    21     1    20    1
    22     1    21    1
    23     4    22    1
    24     8    23    1
    25     9    24    1
    26    10    25    1
    27    11    26    1
    28    16    27    1
    29    17    28    1
    30    17    29    1
    31    17    30    1
    32    18    31    1
    33    18    32    1
    34    18    33    1
@<TRIPOS>MOLECULE
884226
 45 47 0 0 0
SMALL
GASTEIGER

@<TRIPOS>ATOM
      1 O           0.8072    2.5419    0.0953 O.2     1  UNL1       -0.2702
      2 C           0.3534    1.3195    0.0754 C.2     1  UNL1        0.2450
      3 C           1.3247    0.2489   -0.0364 C.2     1  UNL1        0.0013
      4 C           2.6077    0.5160   -0.1172 C.2     1  UNL1       -0.0497
      5 C           3.6516   -0.4963   -0.2319 C.ar    1  UNL1       -0.0249
      6 C           4.9697   -0.1070   -0.3103 C.ar    1  UNL1       -0.0546
      7 C           6.0108   -0.9992   -0.4200 C.ar    1  UNL1       -0.0612
      8 C           5.7280   -2.3330   -0.4530 C.ar    1  UNL1       -0.0617
      9 C           4.4008   -2.7530   -0.3751 C.ar    1  UNL1       -0.0612
     10 C           3.3667   -1.8289   -0.2647 C.ar    1  UNL1       -0.0546
     11 N          -1.0371    1.2006    0.1671 N.am    1  UNL1       -0.2495
     12 C          -1.8115    2.4012    0.3059 C.ar    1  UNL1        0.1279
     13 C          -2.1401    2.9580    1.5019 C.ar    1  UNL1       -0.0213
     14 C          -2.8936    4.1214    1.5223 C.ar    1  UNL1       -0.0571
     15 C          -3.3119    4.7180    0.3479 C.ar    1  UNL1       -0.0435
     16 C          -2.9564    4.1203   -0.8352 C.ar    1  UNL1        0.0297
     17 N          -2.2218    2.9870   -0.8326 N.ar    1  UNL1       -0.2399
     18 C          -1.7583   -0.0310    0.1221 C.3     1  UNL1        0.0327
     19 C          -1.4613   -1.0184    1.1937 C.3     1  UNL1       -0.0338
     20 C          -1.3348   -2.4319    0.7101 C.3     1  UNL1       -0.0514
     21 C          -2.4741   -2.8477   -0.1885 C.3     1  UNL1       -0.0529
     22 C          -2.8466   -1.7669   -1.1790 C.3     1  UNL1       -0.0514
     23 C          -1.7113   -0.7313   -1.2316 C.3     1  UNL1       -0.0338
     24 H           1.0137   -0.7639   -0.0507 H       1  UNL1        0.0670
     25 H           2.8840    1.5802   -0.0946 H       1  UNL1        0.0625
     26 H           5.2572    0.9532   -0.2885 H       1  UNL1        0.0623
     27 H           7.0443   -0.6999   -0.4817 H       1  UNL1        0.0618
     28 H           6.5266   -3.0840   -0.5398 H       1  UNL1        0.0618
     29 H           4.2357   -3.8159   -0.4057 H       1  UNL1        0.0618
     30 H           2.3669   -2.2311   -0.2095 H       1  UNL1        0.0623
     31 H          -1.8024    2.4746    2.4072 H       1  UNL1        0.0652
     32 H          -3.1712    4.5891    2.4715 H       1  UNL1        0.0619
     33 H          -3.8958    5.6175    0.3122 H       1  UNL1        0.0633
     34 H          -3.2340    4.5078   -1.8167 H       1  UNL1        0.0830
     35 H          -2.8902    0.1750    0.2355 H       1  UNL1        0.0505
     36 H          -0.5257   -0.7385    1.7132 H       1  UNL1        0.0283
     37 H          -2.2394   -0.9856    2.0236 H       1  UNL1        0.0283
     38 H          -1.4036   -3.0894    1.6254 H       1  UNL1        0.0266
     39 H          -0.3726   -2.6802    0.2426 H       1  UNL1        0.0266
     40 H          -2.1467   -3.7371   -0.7643 H       1  UNL1        0.0265
     41 H          -3.3325   -3.1469    0.4465 H       1  UNL1        0.0265
     42 H          -3.0910   -2.1523   -2.1771 H       1  UNL1        0.0266
     43 H          -3.7389   -1.2317   -0.7946 H       1  UNL1        0.0266
     44 H          -1.9464   -0.0367   -2.0609 H       1  UNL1        0.0283
     45 H          -0.7994   -1.2925   -1.3602 H       1  UNL1        0.0283
@<TRIPOS>BOND
     1     1     2    2
     2     2     3    1
     3     3     4    2
     4     4     5    1
     5     5     6   ar
     6     6     7   ar
     7     7     8   ar
     8     8     9   ar
     9     9    10   ar
    10     2    11   am
    11    11    12    1
    12    12    13   ar
    13    13    14   ar
    14    14    15   ar
    15    15    16   ar
    16    16    17   ar
    17    11    18    1
    18    18    19    1
    19    19    20    1
    20    20    21    1
    21    21    22    1
    22    22    23    1
    23    10     5   ar
    24    17    12   ar
    25    23    18    1
    26     3    24    1
    27     4    25    1
    28     6    26    1
    29     7    27    1
    30     8    28    1
    31     9    29    1
    32    10    30    1
    33    13    31    1
    34    14    32    1
    35    15    33    1
    36    16    34    1
    37    18    35    1
    38    19    36    1
    39    19    37    1
    40    20    38    1
    41    20    39    1
    42    21    40    1
    43    21    41    1
    44    22    42    1
    45    22    43    1
    46    23    44    1
    47    23    45    1
@<TRIPOS>MOLECULE
884165
 47 51 0 0 0
SMALL
GASTEIGER

@<TRIPOS>ATOM
      1 O           3.1038    2.4949   -0.1706 O.2     1  UNL1       -0.2923
      2 C           1.8935    2.6190   -0.4098 C.2     1  UNL1        0.1628
      3 C           1.3666    3.9191   -0.8551 C.3     1  UNL1        0.0106
      4 C           0.1918    4.2403    0.0114 C.3     1  UNL1       -0.0409
      5 C          -0.8583    3.1597    0.0057 C.3     1  UNL1       -0.0138
      6 C          -0.3022    1.7854   -0.0702 C.2     1  UNL1        0.0156
      7 C           0.9740    1.5057   -0.2610 C.2     1  UNL1        0.0377
      8 C           1.4364    0.1191   -0.2907 C.3     1  UNL1        0.0934
      9 C           0.4599   -0.8992   -0.8030 C.3     1  UNL1       -0.0020
     10 C          -0.9815   -0.5160   -0.7057 C.3     1  UNL1        0.0510
     11 C          -1.8995   -1.6028   -0.3864 C.ar    1  UNL1       -0.0238
     12 C          -1.5637   -2.9453   -0.5467 C.ar    1  UNL1       -0.0565
     13 C          -2.5020   -3.8876   -0.2284 C.ar    1  UNL1       -0.0614
     14 C          -3.7697   -3.5734    0.2450 C.ar    1  UNL1       -0.0615
     15 C          -4.1036   -2.2446    0.4039 C.ar    1  UNL1       -0.0582
     16 C          -3.1553   -1.2942    0.0824 C.ar    1  UNL1       -0.0409
     17 C          -3.5558    0.1237    0.2683 C.3     1  UNL1       -0.0116
     18 C          -2.3251    0.7438    0.9563 C.3     1  UNL1        0.0165
     19 N          -1.1958    0.6846    0.0629 N.pl3   1  UNL1       -0.3253
     20 S           1.9528   -0.3884    1.4073 S.3     1  UNL1       -0.1383
     21 C           2.9040   -1.9035    1.2004 C.3     1  UNL1       -0.0039
     22 C           4.2174   -1.7215    0.5436 C.3     1  UNL1       -0.0348
     23 C           4.3697   -0.4554   -0.2471 C.3     1  UNL1       -0.0039
     24 S           2.9705   -0.0390   -1.2699 S.3     1  UNL1       -0.1383
     25 H           1.0853    3.8007   -1.9338 H       1  UNL1        0.0345
     26 H           2.1236    4.7132   -0.7189 H       1  UNL1        0.0345
     27 H          -0.2621    5.1861   -0.3944 H       1  UNL1        0.0273
     28 H           0.5625    4.4930    1.0168 H       1  UNL1        0.0273
     29 H          -1.4677    3.3370   -0.9030 H       1  UNL1        0.0326
     30 H          -1.4689    3.2993    0.8951 H       1  UNL1        0.0326
     31 H           0.7046   -1.8415   -0.2624 H       1  UNL1        0.0311
     32 H           0.7439   -1.1332   -1.8612 H       1  UNL1        0.0311
     33 H          -1.2748   -0.2327   -1.7756 H       1  UNL1        0.0550
     34 H          -0.5854   -3.1692   -0.9196 H       1  UNL1        0.0621
     35 H          -2.2548   -4.9379   -0.3478 H       1  UNL1        0.0618
     36 H          -4.4681   -4.3709    0.4793 H       1  UNL1        0.0618
     37 H          -5.0918   -1.9909    0.7730 H       1  UNL1        0.0620
     38 H          -3.6937    0.5996   -0.7242 H       1  UNL1        0.0328
     39 H          -4.3944    0.2537    0.9539 H       1  UNL1        0.0328
     40 H          -2.5513    1.6990    1.4011 H       1  UNL1        0.0467
     41 H          -2.0930    0.0221    1.7924 H       1  UNL1        0.0467
     42 H           2.3033   -2.6846    0.6724 H       1  UNL1        0.0377
     43 H           3.0746   -2.3236    2.2337 H       1  UNL1        0.0377
     44 H           4.4059   -2.6108   -0.1249 H       1  UNL1        0.0281
     45 H           5.0289   -1.7610    1.2974 H       1  UNL1        0.0281
     46 H           4.6998    0.3468    0.4439 H       1  UNL1        0.0377
     47 H           5.2455   -0.6185   -0.9357 H       1  UNL1        0.0377
@<TRIPOS>BOND
     1     1     2    2
     2     2     3    1
     3     3     4    1
     4     4     5    1
     5     5     6    1
     6     6     7    2
     7     7     8    1
     8     8     9    1
     9     9    10    1
    10    10    11    1
    11    11    12   ar
    12    12    13   ar
    13    13    14   ar
    14    14    15   ar
    15    15    16   ar
    16    16    17    1
    17    17    18    1
    18    18    19    1
    19     8    20    1
    20    20    21    1
    21    21    22    1
    22    22    23    1
    23    23    24    1
    24     7     2    1
    25    24     8    1
    26    19     6    1
    27    19    10    1
    28    16    11   ar
    29     3    25    1
    30     3    26    1
    31     4    27    1
    32     4    28    1
    33     5    29    1
    34     5    30    1
    35     9    31    1
    36     9    32    1
    37    10    33    1
    38    12    34    1
    39    13    35    1
    40    14    36    1
    41    15    37    1
    42    17    38    1
    43    17    39    1
    44    18    40    1
    45    18    41    1
    46    21    42    1
    47    21    43    1
    48    22    44    1
    49    22    45    1
    50    23    46    1
    51    23    47    1
@<TRIPOS>MOLECULE
CHEMBL4086763
 38 39 0 0 0
SMALL
GASTEIGER

@<TRIPOS>ATOM
      1 C          -4.1270   -0.5730   -1.9909 C.3     1  UNL1       -0.0493
      2 C          -2.9407   -1.4008   -2.4188 C.3     1  UNL1        0.0124
      3 N          -1.7280   -1.0040   -1.6501 N.am    1  UNL1       -0.2926
      4 C          -1.5735   -1.7111   -0.4131 C.3     1  UNL1        0.0633
      5 C          -2.3428   -1.0078    0.6750 C.ar    1  UNL1        0.0955
      6 N          -3.4690   -1.0316    1.1351 N.ar    1  UNL1       -0.2507
      7 C          -3.9324   -0.3120    2.1194 C.ar    1  UNL1        0.0351
      8 C          -3.0528    0.5606    2.6908 C.ar    1  UNL1       -0.0045
      9 S          -1.5438    0.2645    1.7169 S.2     1  UNL1       -0.0790
     10 C          -0.9420    0.0055   -2.1953 C.2     1  UNL1        0.2535
     11 O          -1.3329    0.5719   -3.2983 O.2     1  UNL1       -0.2719
     12 C           0.3125    0.5261   -1.6671 C.3     1  UNL1        0.1654
     13 O           0.7695   -0.1413   -0.5440 O.3     1  UNL1       -0.4828
     14 C           1.9587    0.2613    0.0554 C.ar    1  UNL1        0.1212
     15 C           2.3592   -0.4533    1.1804 C.ar    1  UNL1       -0.0197
     16 C           3.5226   -0.0903    1.8003 C.ar    1  UNL1       -0.0554
     17 C           4.3091    0.9473    1.3593 C.ar    1  UNL1       -0.0502
     18 C           5.5796    1.3199    2.0622 C.3     1  UNL1       -0.0397
     19 C           3.8970    1.6414    0.2465 C.ar    1  UNL1       -0.0554
     20 C           2.7204    1.3091   -0.4184 C.ar    1  UNL1       -0.0197
     21 H          -4.8480   -1.1653   -1.3723 H       1  UNL1        0.0245
     22 H          -4.7212   -0.2032   -2.8659 H       1  UNL1        0.0245
     23 H          -3.7916    0.3351   -1.4491 H       1  UNL1        0.0245
     24 H          -2.7619   -1.1712   -3.4894 H       1  UNL1        0.0462
     25 H          -3.0924   -2.4737   -2.2977 H       1  UNL1        0.0462
     26 H          -0.5449   -1.9181   -0.1011 H       1  UNL1        0.0535
     27 H          -2.0673   -2.7180   -0.4542 H       1  UNL1        0.0535
     28 H          -4.9787   -0.4084    2.4659 H       1  UNL1        0.0835
     29 H          -3.1304    1.2879    3.5170 H       1  UNL1        0.0709
     30 H           1.1179    0.4797   -2.4460 H       1  UNL1        0.0795
     31 H           0.2214    1.6353   -1.4552 H       1  UNL1        0.0795
     32 H           1.7436   -1.2797    1.5409 H       1  UNL1        0.0654
     33 H           3.8515   -0.6337    2.6771 H       1  UNL1        0.0621
     34 H           6.2597    1.8673    1.3799 H       1  UNL1        0.0278
     35 H           6.0757    0.3861    2.3975 H       1  UNL1        0.0278
     36 H           5.3177    2.0028    2.8877 H       1  UNL1        0.0278
     37 H           4.5114    2.4523   -0.0983 H       1  UNL1        0.0621
     38 H           2.3939    1.8424   -1.2820 H       1  UNL1        0.0654
@<TRIPOS>BOND
     1     1     2    1
     2     2     3    1
     3     3     4    1
     4     4     5    1
     5     5     6   ar
     6     6     7   ar
     7     7     8   ar
     8     8     9   ar
     9     3    10   am
    10    10    11    2
    11    10    12    1
    12    12    13    1
    13    13    14    1
    14    14    15   ar
    15    15    16   ar
    16    16    17   ar
    17    17    18    1
    18    17    19   ar
    19    19    20   ar
    20     9     5   ar
    21    20    14   ar
    22     1    21    1
    23     1    22    1
    24     1    23    1
    25     2    24    1
    26     2    25    1
    27     4    26    1
    28     4    27    1
    29     7    28    1
    30     8    29    1
    31    12    30    1
    32    12    31    1
    33    15    32    1
    34    16    33    1
    35    18    34    1
    36    18    35    1
    37    18    36    1
    38    19    37    1
    39    20    38    1
@<TRIPOS>MOLECULE
CHEMBL5275096
 60 61 0 0 0
SMALL
GASTEIGER

@<TRIPOS>ATOM
      1 C           5.2576    4.9133   -0.7913 C.3     1  UNL1        0.0788
      2 O           5.2444    3.5193   -0.9796 O.3     1  UNL1       -0.4950
      3 C           4.1241    2.7399   -0.7739 C.ar    1  UNL1        0.1220
      4 C           2.9563    3.3232   -0.3668 C.ar    1  UNL1       -0.0181
      5 C           1.8208    2.5205   -0.1604 C.ar    1  UNL1       -0.0352
      6 C           1.8597    1.1532   -0.3604 C.ar    1  UNL1        0.0551
      7 N           0.7691    0.2886   -0.1790 N.am    1  UNL1       -0.2837
      8 C          -0.5116    0.7435    0.2224 C.2     1  UNL1        0.2206
      9 O          -0.8261    1.9194    0.4571 O.2     1  UNL1       -0.2752
     10 C          -1.6429   -0.2590    0.3969 C.3     1  UNL1        0.0392
     11 C          -1.8529   -0.9275   -0.9081 C.3     1  UNL1       -0.0391
     12 C          -3.2626   -0.8268   -1.4384 C.3     1  UNL1       -0.0432
     13 C          -3.1675   -1.1193   -2.9411 C.3     1  UNL1       -0.0624
     14 C          -3.6693    0.6198   -1.3152 C.3     1  UNL1       -0.0502
     15 C          -3.7561    1.0714    0.1149 C.3     1  UNL1       -0.0490
     16 C          -2.8188    0.3786    1.0365 C.3     1  UNL1       -0.0276
     17 C          -3.5970   -0.5712    1.9370 C.3     1  UNL1       -0.0432
     18 C          -2.7315   -1.1013    3.0562 C.3     1  UNL1       -0.0624
     19 C          -4.7681    0.1464    2.5691 C.3     1  UNL1       -0.0624
     20 C           3.0585    0.5677   -0.7764 C.ar    1  UNL1        0.0583
     21 N           3.0812   -0.8368   -0.9757 N.am    1  UNL1       -0.2826
     22 C           3.4336   -1.6501    0.1333 C.2     1  UNL1        0.2338
     23 O           3.7118   -1.1145    1.2427 O.2     1  UNL1       -0.2738
     24 C           3.5011   -3.1342    0.0816 C.3     1  UNL1        0.0798
     25 C           2.7071   -3.7460    1.1947 C.3     1  UNL1       -0.0413
     26 N           3.1525   -3.6567   -1.2142 N.3     1  UNL1       -0.3202
     27 C           4.1630    1.3608   -0.9754 C.ar    1  UNL1        0.0031
     28 H           4.6506    5.4494   -1.5305 H       1  UNL1        0.0660
     29 H           6.2694    5.3284   -0.6939 H       1  UNL1        0.0660
     30 H           4.7662    5.0967    0.2074 H       1  UNL1        0.0660
     31 H           2.9046    4.3756   -0.2072 H       1  UNL1        0.0655
     32 H           0.9252    3.0271    0.1616 H       1  UNL1        0.0638
     33 H           0.8745   -0.7507   -0.3399 H       1  UNL1        0.1549
     34 H          -1.1650   -1.0209    1.0881 H       1  UNL1        0.0397
     35 H          -1.4957   -1.9897   -0.8990 H       1  UNL1        0.0275
     36 H          -1.2125   -0.4375   -1.6886 H       1  UNL1        0.0275
     37 H          -3.9673   -1.5318   -0.9862 H       1  UNL1        0.0298
     38 H          -2.4910   -1.9892   -3.1263 H       1  UNL1        0.0232
     39 H          -2.7397   -0.2620   -3.4641 H       1  UNL1        0.0232
     40 H          -4.1640   -1.3878   -3.3477 H       1  UNL1        0.0232
     41 H          -4.6197    0.7436   -1.8727 H       1  UNL1        0.0268
     42 H          -2.9065    1.2248   -1.8470 H       1  UNL1        0.0268
     43 H          -3.6210    2.1865    0.1410 H       1  UNL1        0.0268
     44 H          -4.8002    0.9011    0.4474 H       1  UNL1        0.0268
     45 H          -2.4153    1.1659    1.7426 H       1  UNL1        0.0311
     46 H          -4.0065   -1.4402    1.4031 H       1  UNL1        0.0298
     47 H          -2.2834   -0.2684    3.6457 H       1  UNL1        0.0232
     48 H          -3.4399   -1.6072    3.7751 H       1  UNL1        0.0232
     49 H          -2.0190   -1.8657    2.7438 H       1  UNL1        0.0232
     50 H          -5.7133   -0.0240    2.0094 H       1  UNL1        0.0232
     51 H          -4.5622    1.2534    2.4710 H       1  UNL1        0.0232
     52 H          -4.8412   -0.1239    3.6251 H       1  UNL1        0.0232
     53 H           2.8568   -1.3037   -1.8798 H       1  UNL1        0.1549
     54 H           4.5742   -3.4496    0.2523 H       1  UNL1        0.0551
     55 H           3.3301   -3.9020    2.1211 H       1  UNL1        0.0249
     56 H           2.3287   -4.7223    0.8536 H       1  UNL1        0.0249
     57 H           1.8297   -3.1019    1.4595 H       1  UNL1        0.0249
     58 H           3.7045   -3.1634   -1.9322 H       1  UNL1        0.1189
     59 H           2.1300   -3.6085   -1.3194 H       1  UNL1        0.1189
     60 H           5.0827    0.8753   -1.2994 H       1  UNL1        0.0673
@<TRIPOS>BOND
     1     1     2    1
     2     2     3    1
     3     3     4   ar
     4     4     5   ar
     5     5     6   ar
     6     6     7    1
     7     7     8   am
     8     8     9    2
     9     8    10    1
    10    10    11    1
    11    11    12    1
    12    12    13    1
    13    12    14    1
    14    14    15    1
    15    15    16    1
    16    16    17    1
    17    17    18    1
    18    17    19    1
    19     6    20   ar
    20    20    21    1
    21    21    22   am
    22    22    23    2
    23    22    24    1
    24    24    25    1
    25    24    26    1
    26    20    27   ar
    27    27     3   ar
    28    16    10    1
    29     1    28    1
    30     1    29    1
    31     1    30    1
    32     4    31    1
    33     5    32    1
    34     7    33    1
    35    10    34    1
    36    11    35    1
    37    11    36    1
    38    12    37    1
    39    13    38    1
    40    13    39    1
    41    13    40    1
    42    14    41    1
    43    14    42    1
    44    15    43    1
    45    15    44    1
    46    16    45    1
    47    17    46    1
    48    18    47    1
    49    18    48    1
    50    18    49    1
    51    19    50    1
    52    19    51    1
    53    19    52    1
    54    21    53    1
    55    24    54    1
    56    25    55    1
    57    25    56    1
    58    25    57    1
    59    26    58    1
    60    26    59    1
    61    27    60    1
@<TRIPOS>MOLECULE
884228
 49 51 0 0 0
SMALL
GASTEIGER

@<TRIPOS>ATOM
      1 C           6.3631    3.3279    1.5273 C.3     1  UNL1        0.0788
      2 O           5.0496    2.8178    1.5119 O.3     1  UNL1       -0.4951
      3 C           4.6715    1.9727    0.4955 C.ar    1  UNL1        0.1207
      4 C           5.5614    1.6246   -0.4997 C.ar    1  UNL1       -0.0199
      5 C           5.1695    0.7836   -1.5025 C.ar    1  UNL1       -0.0577
      6 C           3.8746    0.2884   -1.5067 C.ar    1  UNL1       -0.0544
      7 C           2.9964    0.6343   -0.5212 C.ar    1  UNL1       -0.0214
      8 C           1.6055    0.1285   -0.4885 C.2     1  UNL1       -0.0496
      9 C           1.0844   -0.6776   -1.3724 C.2     1  UNL1        0.0013
     10 C          -0.2094   -1.2458   -1.4924 C.2     1  UNL1        0.2450
     11 O          -0.3066   -2.0777   -2.5161 O.2     1  UNL1       -0.2702
     12 N          -1.3975   -1.1262   -0.7731 N.am    1  UNL1       -0.2495
     13 C          -2.3884   -2.1902   -0.9949 C.ar    1  UNL1        0.1279
     14 C          -2.3289   -3.2906   -0.1806 C.ar    1  UNL1       -0.0213
     15 C          -3.2659   -4.2842   -0.3990 C.ar    1  UNL1       -0.0571
     16 C          -4.2021   -4.1588   -1.3862 C.ar    1  UNL1       -0.0435
     17 C          -4.2381   -3.0494   -2.1839 C.ar    1  UNL1        0.0297
     18 N          -3.3103   -2.0833   -1.9555 N.ar    1  UNL1       -0.2399
     19 C          -1.7451   -0.0316    0.0433 C.3     1  UNL1        0.0327
     20 C          -3.1100    0.5624   -0.3460 C.3     1  UNL1       -0.0338
     21 C          -3.1664    1.8946    0.3847 C.3     1  UNL1       -0.0514
     22 C          -3.2490    1.6397    1.8464 C.3     1  UNL1       -0.0529
     23 C          -2.2709    0.6719    2.3878 C.3     1  UNL1       -0.0514
     24 C          -1.9202   -0.4679    1.4881 C.3     1  UNL1       -0.0338
     25 C           3.3897    1.4834    0.4927 C.ar    1  UNL1       -0.0128
     26 H           7.1181    2.5202    1.4063 H       1  UNL1        0.0660
     27 H           6.5278    3.7671    2.5334 H       1  UNL1        0.0660
     28 H           6.5270    4.0616    0.7292 H       1  UNL1        0.0660
     29 H           6.5663    2.0084   -0.4971 H       1  UNL1        0.0654
     30 H           5.8950    0.5294   -2.2709 H       1  UNL1        0.0619
     31 H           3.6142   -0.3595   -2.3021 H       1  UNL1        0.0623
     32 H           0.9710    0.4070    0.3347 H       1  UNL1        0.0625
     33 H           1.8117   -0.9593   -2.1784 H       1  UNL1        0.0670
     34 H          -1.6015   -3.4111    0.6022 H       1  UNL1        0.0652
     35 H          -3.2627   -5.1722    0.2149 H       1  UNL1        0.0619
     36 H          -4.9518   -4.9380   -1.5716 H       1  UNL1        0.0633
     37 H          -4.9802   -2.9247   -2.9838 H       1  UNL1        0.0830
     38 H          -1.0441    0.7738    0.0383 H       1  UNL1        0.0505
     39 H          -3.1792    0.7152   -1.4289 H       1  UNL1        0.0283
     40 H          -3.9336   -0.0578    0.0746 H       1  UNL1        0.0283
     41 H          -2.2914    2.4797    0.0757 H       1  UNL1        0.0266
     42 H          -4.0908    2.3995    0.0417 H       1  UNL1        0.0266
     43 H          -3.0885    2.6279    2.3707 H       1  UNL1        0.0265
     44 H          -4.3056    1.3666    2.1090 H       1  UNL1        0.0265
     45 H          -1.3364    1.1980    2.6950 H       1  UNL1        0.0266
     46 H          -2.6860    0.2422    3.3319 H       1  UNL1        0.0266
     47 H          -2.6674   -1.2815    1.5441 H       1  UNL1        0.0283
     48 H          -0.9414   -0.8746    1.8199 H       1  UNL1        0.0283
     49 H           2.6725    1.7356    1.2534 H       1  UNL1        0.0660
@<TRIPOS>BOND
     1     1     2    1
     2     2     3    1
     3     3     4   ar
     4     4     5   ar
     5     5     6   ar
     6     6     7   ar
     7     7     8    1
     8     8     9    2
     9     9    10    1
    10    10    11    2
    11    10    12   am
    12    12    13    1
    13    13    14   ar
    14    14    15   ar
    15    15    16   ar
    16    16    17   ar
    17    17    18   ar
    18    12    19    1
    19    19    20    1
    20    20    21    1
    21    21    22    1
    22    22    23    1
    23    23    24    1
    24     7    25   ar
    25    25     3   ar
    26    18    13   ar
    27    24    19    1
    28     1    26    1
    29     1    27    1
    30     1    28    1
    31     4    29    1
    32     5    30    1
    33     6    31    1
    34     8    32    1
    35     9    33    1
    36    14    34    1
    37    15    35    1
    38    16    36    1
    39    17    37    1
    40    19    38    1
    41    20    39    1
    42    20    40    1
    43    21    41    1
    44    21    42    1
    45    22    43    1
    46    22    44    1
    47    23    45    1
    48    23    46    1
    49    24    47    1
    50    24    48    1
    51    25    49    1
@<TRIPOS>MOLECULE
884237
 42 44 0 0 0
SMALL
GASTEIGER

@<TRIPOS>ATOM
      1 O           1.1600   -0.0499   -1.2166 O.2     1  UNL1       -0.2715
      2 C           0.8482    0.5599   -0.1618 C.2     1  UNL1        0.2591
      3 C           1.9128    1.0863    0.6980 C.3     1  UNL1        0.1657
      4 O           3.2100    0.7973    0.2646 O.3     1  UNL1       -0.4828
      5 C           3.7697   -0.4529    0.1140 C.ar    1  UNL1        0.1212
      6 C           5.0737   -0.5405   -0.3425 C.ar    1  UNL1       -0.0199
      7 C           5.6994   -1.7565   -0.5165 C.ar    1  UNL1       -0.0583
      8 C           5.0498   -2.9404   -0.2419 C.ar    1  UNL1       -0.0615
      9 C           3.7521   -2.8642    0.2131 C.ar    1  UNL1       -0.0583
     10 C           3.1260   -1.6308    0.3867 C.ar    1  UNL1       -0.0199
     11 N          -0.5344    0.6955    0.1230 N.am    1  UNL1       -0.2445
     12 C          -0.8685    1.4041    1.3489 C.ar    1  UNL1        0.1673
     13 N          -1.0725    1.2827    2.4735 N.ar    1  UNL1       -0.2328
     14 C          -1.3654    2.1389    3.3954 C.ar    1  UNL1        0.0368
     15 C          -1.4661    3.4790    3.0097 C.ar    1  UNL1       -0.0030
     16 S          -1.0876    3.2793    1.2090 S.2     1  UNL1       -0.0603
     17 C          -1.5627    0.1761   -0.7243 C.3     1  UNL1        0.0330
     18 C          -2.4059    1.3043   -1.2583 C.3     1  UNL1       -0.0338
     19 C          -3.7823    0.8202   -1.6554 C.3     1  UNL1       -0.0514
     20 C          -3.6584   -0.5942   -2.1767 C.3     1  UNL1       -0.0529
     21 C          -3.3557   -1.5071   -1.0021 C.3     1  UNL1       -0.0514
     22 C          -2.4025   -0.8811   -0.0332 C.3     1  UNL1       -0.0338
     23 H           1.7961    0.5695    1.6966 H       1  UNL1        0.0795
     24 H           1.7885    2.1703    0.8942 H       1  UNL1        0.0795
     25 H           5.5945    0.3939   -0.5620 H       1  UNL1        0.0654
     26 H           6.7347   -1.7871   -0.8804 H       1  UNL1        0.0619
     27 H           5.5364   -3.9105   -0.3763 H       1  UNL1        0.0618
     28 H           3.2414   -3.7915    0.4288 H       1  UNL1        0.0619
     29 H           2.1200   -1.6270    0.7504 H       1  UNL1        0.0654
     30 H          -1.5317    1.8215    4.4591 H       1  UNL1        0.0835
     31 H          -1.6736    4.3511    3.4843 H       1  UNL1        0.0709
     32 H          -1.0883   -0.3212   -1.5914 H       1  UNL1        0.0505
     33 H          -1.9399    1.7396   -2.1783 H       1  UNL1        0.0283
     34 H          -2.5495    2.0969   -0.5096 H       1  UNL1        0.0283
     35 H          -4.1563    1.4740   -2.4459 H       1  UNL1        0.0266
     36 H          -4.4806    0.8289   -0.7905 H       1  UNL1        0.0266
     37 H          -2.8360   -0.6588   -2.9057 H       1  UNL1        0.0265
     38 H          -4.6086   -0.8667   -2.6733 H       1  UNL1        0.0265
     39 H          -4.3342   -1.6473   -0.4565 H       1  UNL1        0.0266
     40 H          -3.0469   -2.4835   -1.3866 H       1  UNL1        0.0266
     41 H          -2.9184   -0.4745    0.8511 H       1  UNL1        0.0283
     42 H          -1.6873   -1.6836    0.2859 H       1  UNL1        0.0283
@<TRIPOS>BOND
     1     1     2    2
     2     2     3    1
     3     3     4    1
     4     4     5    1
     5     5     6   ar
     6     6     7   ar
     7     7     8   ar
     8     8     9   ar
     9     9    10   ar
    10     2    11   am
    11    11    12    1
    12    12    13   ar
    13    13    14   ar
    14    14    15   ar
    15    15    16   ar
    16    11    17    1
    17    17    18    1
    18    18    19    1
    19    19    20    1
    20    20    21    1
    21    21    22    1
    22    10     5   ar
    23    16    12   ar
    24    22    17    1
    25     3    23    1
    26     3    24    1
    27     6    25    1
    28     7    26    1
    29     8    27    1
    30     9    28    1
    31    10    29    1
    32    14    30    1
    33    15    31    1
    34    17    32    1
    35    18    33    1
    36    18    34    1
    37    19    35    1
    38    19    36    1
    39    20    37    1
    40    20    38    1
    41    21    39    1
    42    21    40    1
    43    22    41    1
    44    22    42    1
@<TRIPOS>MOLECULE
CHEMBL4065074
 43 44 0 0 0
SMALL
GASTEIGER

@<TRIPOS>ATOM
      1 C           5.8391   -0.2263    1.7124 C.3     1  UNL1       -0.0397
      2 C           4.7620    0.0362    0.7245 C.ar    1  UNL1       -0.0502
      3 C           3.4548    0.1519    1.1442 C.ar    1  UNL1       -0.0554
      4 C           2.4542    0.3964    0.2215 C.ar    1  UNL1       -0.0197
      5 C           2.6829    0.5354   -1.1262 C.ar    1  UNL1        0.1212
      6 O           1.7501    0.7745   -2.0902 O.3     1  UNL1       -0.4828
      7 C           0.3746    0.9218   -1.9653 C.3     1  UNL1        0.1654
      8 C          -0.2917   -0.2933   -1.4324 C.2     1  UNL1        0.2535
      9 O           0.4539   -1.2787   -1.1799 O.2     1  UNL1       -0.2719
     10 N          -1.6882   -0.4085   -1.1975 N.am    1  UNL1       -0.2938
     11 C          -2.1329   -1.6974   -0.6749 C.3     1  UNL1        0.0172
     12 C          -2.0937   -1.8073    0.8067 C.3     1  UNL1       -0.0138
     13 C          -2.5816   -3.1978    1.2268 C.3     1  UNL1        0.0456
     14 O          -3.8706   -3.4155    0.8004 O.3     1  UNL1       -0.3950
     15 C          -2.6543    0.5948   -1.4585 C.3     1  UNL1        0.0460
     16 C          -2.9868    1.5481   -0.4073 C.ar    1  UNL1        0.0071
     17 C          -2.4907    2.7356   -0.0272 C.ar    1  UNL1       -0.0500
     18 C          -3.0381    3.3977    0.9885 C.ar    1  UNL1       -0.0544
     19 C          -4.1201    2.8472    1.6429 C.ar    1  UNL1       -0.0240
     20 S          -4.3887    1.2702    0.7570 S.2     1  UNL1       -0.1000
     21 C           4.0106    0.4160   -1.5363 C.ar    1  UNL1       -0.0197
     22 C           5.0304    0.1703   -0.6215 C.ar    1  UNL1       -0.0554
     23 H           5.5171    0.2218    2.6780 H       1  UNL1        0.0278
     24 H           5.9372   -1.3074    1.8360 H       1  UNL1        0.0278
     25 H           6.7876    0.2332    1.3446 H       1  UNL1        0.0278
     26 H           3.2547    0.0453    2.2006 H       1  UNL1        0.0621
     27 H           1.4561    0.4875    0.5924 H       1  UNL1        0.0654
     28 H          -0.0555    1.1229   -2.9649 H       1  UNL1        0.0795
     29 H           0.1226    1.7555   -1.2439 H       1  UNL1        0.0795
     30 H          -1.5023   -2.5291   -1.1022 H       1  UNL1        0.0465
     31 H          -3.1596   -1.9129   -1.0486 H       1  UNL1        0.0465
     32 H          -2.6826   -1.0329    1.3176 H       1  UNL1        0.0302
     33 H          -1.0312   -1.7177    1.1847 H       1  UNL1        0.0302
     34 H          -1.9308   -3.9867    0.8026 H       1  UNL1        0.0557
     35 H          -2.5623   -3.2285    2.3436 H       1  UNL1        0.0557
     36 H          -3.9772   -4.1713    0.1740 H       1  UNL1        0.2094
     37 H          -2.3434    1.1225   -2.3959 H       1  UNL1        0.0519
     38 H          -3.6107    0.0677   -1.7514 H       1  UNL1        0.0519
     39 H          -1.6135    3.1668   -0.5816 H       1  UNL1        0.0626
     40 H          -2.6529    4.4097    1.3496 H       1  UNL1        0.0623
     41 H          -4.7299    3.1866    2.4845 H       1  UNL1        0.0693
     42 H           4.2355    0.5180   -2.5813 H       1  UNL1        0.0654
     43 H           6.0657    0.0777   -0.9455 H       1  UNL1        0.0621
@<TRIPOS>BOND
     1     1     2    1
     2     2     3   ar
     3     3     4   ar
     4     4     5   ar
     5     5     6    1
     6     6     7    1
     7     7     8    1
     8     8     9    2
     9     8    10   am
    10    10    11    1
    11    11    12    1
    12    12    13    1
    13    13    14    1
    14    10    15    1
    15    15    16    1
    16    16    17   ar
    17    17    18   ar
    18    18    19   ar
    19    19    20   ar
    20     5    21   ar
    21    21    22   ar
    22    22     2   ar
    23    20    16   ar
    24     1    23    1
    25     1    24    1
    26     1    25    1
    27     3    26    1
    28     4    27    1
    29     7    28    1
    30     7    29    1
    31    11    30    1
    32    11    31    1
    33    12    32    1
    34    12    33    1
    35    13    34    1
    36    13    35    1
    37    14    36    1
    38    15    37    1
    39    15    38    1
    40    17    39    1
    41    18    40    1
    42    19    41    1
    43    21    42    1
    44    22    43    1
@<TRIPOS>MOLECULE
884218
 40 42 0 0 0
SMALL
GASTEIGER

@<TRIPOS>ATOM
      1 O          -0.0653   -2.4392   -1.5366 O.2     1  UNL1       -0.2699
      2 C           0.0472   -1.3084   -0.8474 C.2     1  UNL1        0.2480
      3 C           1.4015   -0.8037   -0.8542 C.2     1  UNL1        0.0016
      4 C           1.7894    0.2838   -0.2566 C.2     1  UNL1       -0.0497
      5 C           3.1845    0.7296   -0.3109 C.ar    1  UNL1       -0.0249
      6 C           4.1517    0.0480   -0.9784 C.ar    1  UNL1       -0.0546
      7 C           5.4498    0.5403   -0.9797 C.ar    1  UNL1       -0.0612
      8 C           5.7342    1.7014   -0.3104 C.ar    1  UNL1       -0.0617
      9 C           4.7618    2.3908    0.3633 C.ar    1  UNL1       -0.0612
     10 C           3.4915    1.9107    0.3657 C.ar    1  UNL1       -0.0546
     11 N          -1.1079   -0.8317   -0.2669 N.am    1  UNL1       -0.2368
     12 C          -1.2542    0.3304    0.4992 C.ar    1  UNL1        0.0416
     13 C          -1.5778    1.5287   -0.1272 C.ar    1  UNL1       -0.0399
     14 C          -1.7478    2.6440    0.6482 C.ar    1  UNL1       -0.0600
     15 C          -1.6140    2.6374    2.0174 C.ar    1  UNL1       -0.0616
     16 C          -1.2936    1.4577    2.6524 C.ar    1  UNL1       -0.0600
     17 C          -1.1182    0.3246    1.8941 C.ar    1  UNL1       -0.0399
     18 C          -2.3279   -1.5933   -0.4489 C.ar    1  UNL1        0.0416
     19 C          -2.6288   -2.5585    0.4663 C.ar    1  UNL1       -0.0399
     20 C          -3.8011   -3.2947    0.2967 C.ar    1  UNL1       -0.0600
     21 C          -4.6571   -3.0761   -0.7610 C.ar    1  UNL1       -0.0616
     22 C          -4.3350   -2.0982   -1.6723 C.ar    1  UNL1       -0.0600
     23 C          -3.1609   -1.3603   -1.5033 C.ar    1  UNL1       -0.0399
     24 H           2.1801   -1.3947   -1.4185 H       1  UNL1        0.0670
     25 H           1.0824    0.8732    0.2908 H       1  UNL1        0.0625
     26 H           3.9691   -0.8624   -1.5129 H       1  UNL1        0.0623
     27 H           6.1855   -0.0342   -1.5231 H       1  UNL1        0.0618
     28 H           6.7328    2.0907   -0.3046 H       1  UNL1        0.0618
     29 H           4.9519    3.3099    0.9016 H       1  UNL1        0.0618
     30 H           2.7069    2.4342    0.8884 H       1  UNL1        0.0623
     31 H          -1.6912    1.5617   -1.2252 H       1  UNL1        0.0636
     32 H          -2.0045    3.5805    0.1191 H       1  UNL1        0.0618
     33 H          -1.7620    3.5647    2.5918 H       1  UNL1        0.0618
     34 H          -1.1812    1.4227    3.7361 H       1  UNL1        0.0618
     35 H          -0.8624   -0.6257    2.3822 H       1  UNL1        0.0636
     36 H          -2.0276   -2.8047    1.3235 H       1  UNL1        0.0636
     37 H          -4.0661   -4.0663    1.0058 H       1  UNL1        0.0618
     38 H          -5.5788   -3.6709   -0.8744 H       1  UNL1        0.0618
     39 H          -5.0089   -1.9350   -2.4939 H       1  UNL1        0.0618
     40 H          -2.9483   -0.6072   -2.2377 H       1  UNL1        0.0636
@<TRIPOS>BOND
     1     1     2    2
     2     2     3    1
     3     3     4    2
     4     4     5    1
     5     5     6   ar
     6     6     7   ar
     7     7     8   ar
     8     8     9   ar
     9     9    10   ar
    10     2    11   am
    11    11    12    1
    12    12    13   ar
    13    13    14   ar
    14    14    15   ar
    15    15    16   ar
    16    16    17   ar
    17    11    18    1
    18    18    19   ar
    19    19    20   ar
    20    20    21   ar
    21    21    22   ar
    22    22    23   ar
    23    10     5   ar
    24    17    12   ar
    25    23    18   ar
    26     3    24    1
    27     4    25    1
    28     6    26    1
    29     7    27    1
    30     8    28    1
    31     9    29    1
    32    10    30    1
    33    13    31    1
    34    14    32    1
    35    15    33    1
    36    16    34    1
    37    17    35    1
    38    19    36    1
    39    20    37    1
    40    21    38    1
    41    22    39    1
    42    23    40    1
@<TRIPOS>MOLECULE
884230
 54 56 0 0 0
SMALL
GASTEIGER

@<TRIPOS>ATOM
      1 C           5.8162    3.8717    0.7453 C.3     1  UNL1        0.0790
      2 O           4.5287    3.3589    0.4707 O.3     1  UNL1       -0.4914
      3 C           4.2017    2.0334    0.6937 C.ar    1  UNL1        0.1621
      4 C           5.1704    1.1982    1.2007 C.ar    1  UNL1       -0.0163
      5 C           4.9126   -0.1172    1.4417 C.ar    1  UNL1       -0.0575
      6 C           3.6318   -0.6132    1.1622 C.ar    1  UNL1       -0.0509
      7 C           2.6446    0.1755    0.6609 C.ar    1  UNL1        0.0205
      8 C           1.3102   -0.3109    0.3622 C.2     1  UNL1       -0.0461
      9 C           0.8973   -1.5260    0.5336 C.2     1  UNL1        0.0014
     10 C          -0.3497   -2.1649    0.3013 C.2     1  UNL1        0.2439
     11 O          -0.3064   -3.4527    0.6269 O.2     1  UNL1       -0.2703
     12 N          -1.5923   -1.7919   -0.1749 N.am    1  UNL1       -0.2649
     13 C          -2.5963   -2.8574   -0.2283 C.ar    1  UNL1        0.0369
     14 C          -3.4008   -3.0793    0.8604 C.ar    1  UNL1       -0.0403
     15 C          -4.3438   -4.0979    0.7726 C.ar    1  UNL1       -0.0600
     16 C          -4.4389   -4.8384   -0.3818 C.ar    1  UNL1       -0.0616
     17 C          -3.6304   -4.6143   -1.4728 C.ar    1  UNL1       -0.0600
     18 C          -2.6929   -3.5970   -1.3785 C.ar    1  UNL1       -0.0403
     19 C          -2.0736   -0.4977   -0.6359 C.3     1  UNL1        0.0314
     20 C          -1.4067   -0.0863   -1.8879 C.3     1  UNL1       -0.0339
     21 C          -1.2885    1.4057   -2.0881 C.3     1  UNL1       -0.0514
     22 C          -2.4717    2.1175   -1.4685 C.3     1  UNL1       -0.0529
     23 C          -2.6049    1.8450   -0.0162 C.3     1  UNL1       -0.0514
     24 C          -2.2091    0.4915    0.4656 C.3     1  UNL1       -0.0339
     25 C           2.9558    1.5211    0.4297 C.ar    1  UNL1        0.1686
     26 O           1.9764    2.3771   -0.0849 O.3     1  UNL1       -0.4909
     27 C           1.1171    3.1018    0.7810 C.3     1  UNL1        0.0790
     28 H           5.8965    4.9110    0.3540 H       1  UNL1        0.0660
     29 H           5.9535    3.8601    1.8504 H       1  UNL1        0.0660
     30 H           6.6317    3.2489    0.3106 H       1  UNL1        0.0660
     31 H           6.1692    1.5602    1.4249 H       1  UNL1        0.0655
     32 H           5.6603   -0.7820    1.8390 H       1  UNL1        0.0619
     33 H           3.4831   -1.6613    1.3727 H       1  UNL1        0.0625
     34 H           0.6091    0.3953   -0.0379 H       1  UNL1        0.0626
     35 H           1.7058   -2.1939    0.9529 H       1  UNL1        0.0670
     36 H          -3.3299   -2.4944    1.7826 H       1  UNL1        0.0636
     37 H          -5.0208   -4.3372    1.5949 H       1  UNL1        0.0618
     38 H          -5.1737   -5.6486   -0.4828 H       1  UNL1        0.0618
     39 H          -3.7407   -5.2179   -2.3518 H       1  UNL1        0.0618
     40 H          -2.0745   -3.4454   -2.2480 H       1  UNL1        0.0636
     41 H          -3.1793   -0.7037   -0.9357 H       1  UNL1        0.0505
     42 H          -0.3907   -0.5129   -1.9470 H       1  UNL1        0.0283
     43 H          -1.9542   -0.5443   -2.7708 H       1  UNL1        0.0283
     44 H          -0.3317    1.8141   -1.7373 H       1  UNL1        0.0266
     45 H          -1.3472    1.5843   -3.1821 H       1  UNL1        0.0266
     46 H          -3.4171    1.8904   -1.9999 H       1  UNL1        0.0265
     47 H          -2.2924    3.2133   -1.6319 H       1  UNL1        0.0265
     48 H          -3.6957    2.0034    0.2516 H       1  UNL1        0.0266
     49 H          -2.0876    2.6598    0.5905 H       1  UNL1        0.0266
     50 H          -3.0966    0.1307    1.1135 H       1  UNL1        0.0283
     51 H          -1.3202    0.5265    1.1556 H       1  UNL1        0.0283
     52 H           0.2578    2.4741    1.0786 H       1  UNL1        0.0660
     53 H           0.7038    3.9830    0.2597 H       1  UNL1        0.0660
     54 H           1.6251    3.4343    1.7046 H       1  UNL1        0.0660
@<TRIPOS>BOND
     1     1     2    1
     2     2     3    1
     3     3     4   ar
     4     4     5   ar
     5     5     6   ar
     6     6     7   ar
     7     7     8    1
     8     8     9    2
     9     9    10    1
    10    10    11    2
    11    10    12   am
    12    12    13    1
    13    13    14   ar
    14    14    15   ar
    15    15    16   ar
    16    16    17   ar
    17    17    18   ar
    18    12    19    1
    19    19    20    1
    20    20    21    1
    21    21    22    1
    22    22    23    1
    23    23    24    1
    24     7    25   ar
    25    25    26    1
    26    26    27    1
    27    25     3   ar
    28    18    13   ar
    29    24    19    1
    30     1    28    1
    31     1    29    1
    32     1    30    1
    33     4    31    1
    34     5    32    1
    35     6    33    1
    36     8    34    1
    37     9    35    1
    38    14    36    1
    39    15    37    1
    40    16    38    1
    41    17    39    1
    42    18    40    1
    43    19    41    1
    44    20    42    1
    45    20    43    1
    46    21    44    1
    47    21    45    1
    48    22    46    1
    49    22    47    1
    50    23    48    1
    51    23    49    1
    52    24    50    1
    53    24    51    1
    54    27    52    1
    55    27    53    1
    56    27    54    1
@<TRIPOS>MOLECULE
1189563
 41 40 0 0 0
SMALL
GASTEIGER

@<TRIPOS>ATOM
      1 C           5.2100   -0.1891   -1.1470 C.3     1  UNL1       -0.0653
      2 C           4.5208   -0.1939    0.1965 C.3     1  UNL1       -0.0559
      3 C           3.0373   -0.4446    0.0174 C.3     1  UNL1       -0.0533
      4 C           2.3810   -0.4427    1.3792 C.3     1  UNL1       -0.0527
      5 C           0.8949   -0.6915    1.2982 C.3     1  UNL1       -0.0464
      6 C           0.2137    0.3503    0.4933 C.3     1  UNL1        0.0014
      7 P          -1.5798    0.1160    0.3590 P.3     1  UNL1        0.0939
      8 O          -2.1934   -0.1698    1.7142 O.2     1  UNL1       -0.3205
      9 C          -2.2112    1.6966   -0.2101 C.3     1  UNL1        0.0072
     10 C          -1.6419    2.7899    0.6715 C.3     1  UNL1       -0.0560
     11 C          -3.6817    1.8285   -0.2471 C.3     1  UNL1       -0.0560
     12 C          -1.9314   -1.2409   -0.7466 C.3     1  UNL1        0.0072
     13 C          -3.2592   -1.0679   -1.4753 C.3     1  UNL1       -0.0560
     14 C          -2.0366   -2.5740   -0.0701 C.3     1  UNL1       -0.0560
     15 H           5.6614   -1.1994   -1.3694 H       1  UNL1        0.0230
     16 H           6.0593    0.5197   -1.0977 H       1  UNL1        0.0230
     17 H           4.5353    0.1372   -1.9733 H       1  UNL1        0.0230
     18 H           4.6109    0.7846    0.7146 H       1  UNL1        0.0263
     19 H           4.9233   -1.0261    0.8347 H       1  UNL1        0.0263
     20 H           2.8411   -1.4606   -0.4191 H       1  UNL1        0.0265
     21 H           2.6146    0.2790   -0.6831 H       1  UNL1        0.0265
     22 H           2.6026    0.5382    1.8441 H       1  UNL1        0.0265
     23 H           2.8612   -1.2693    1.9574 H       1  UNL1        0.0265
     24 H           0.7923   -1.6786    0.7576 H       1  UNL1        0.0270
     25 H           0.5259   -0.7605    2.3355 H       1  UNL1        0.0270
     26 H           0.6154    0.4675   -0.5101 H       1  UNL1        0.0342
     27 H           0.3596    1.3369    1.0156 H       1  UNL1        0.0342
     28 H          -1.8171    1.8992   -1.2444 H       1  UNL1        0.0372
     29 H          -1.4818    2.3983    1.6916 H       1  UNL1        0.0237
     30 H          -2.3494    3.6483    0.7700 H       1  UNL1        0.0237
     31 H          -0.6839    3.1886    0.2836 H       1  UNL1        0.0237
     32 H          -4.2272    1.2351    0.5090 H       1  UNL1        0.0237
     33 H          -3.9480    2.8910   -0.0561 H       1  UNL1        0.0237
     34 H          -4.0682    1.6281   -1.2897 H       1  UNL1        0.0237
     35 H          -1.1270   -1.2540   -1.5358 H       1  UNL1        0.0372
     36 H          -4.0515   -0.8226   -0.7481 H       1  UNL1        0.0237
     37 H          -3.1798   -0.3529   -2.3131 H       1  UNL1        0.0237
     38 H          -3.5533   -2.0371   -1.9340 H       1  UNL1        0.0237
     39 H          -1.7015   -3.3489   -0.8015 H       1  UNL1        0.0237
     40 H          -3.0861   -2.8373    0.1807 H       1  UNL1        0.0237
     41 H          -1.4510   -2.6713    0.8473 H       1  UNL1        0.0237
@<TRIPOS>BOND
     1     1     2    1
     2     2     3    1
     3     3     4    1
     4     4     5    1
     5     5     6    1
     6     6     7    1
     7     7     8    2
     8     7     9    1
     9     9    10    1
    10     9    11    1
    11     7    12    1
    12    12    13    1
    13    12    14    1
    14     1    15    1
    15     1    16    1
    16     1    17    1
    17     2    18    1
    18     2    19    1
    19     3    20    1
    20     3    21    1
    21     4    22    1
    22     4    23    1
    23     5    24    1
    24     5    25    1
    25     6    26    1
    26     6    27    1
    27     9    28    1
    28    10    29    1
    29    10    30    1
    30    10    31    1
    31    11    32    1
    32    11    33    1
    33    11    34    1
    34    12    35    1
    35    13    36    1
    36    13    37    1
    37    13    38    1
    38    14    39    1
    39    14    40    1
    40    14    41    1
@<TRIPOS>MOLECULE
884219
 43 45 0 0 0
SMALL
GASTEIGER

@<TRIPOS>ATOM
      1 O           0.8086    1.8718   -1.4733 O.2     1  UNL1       -0.2703
      2 C           0.4293    1.1866   -0.4752 C.2     1  UNL1        0.2440
      3 C           1.5322    0.3651    0.0892 C.2     1  UNL1        0.0012
      4 C           2.7398    0.3667   -0.4200 C.2     1  UNL1       -0.0497
      5 C           3.8104   -0.4230    0.1181 C.ar    1  UNL1       -0.0249
      6 C           5.0861   -0.3745   -0.4764 C.ar    1  UNL1       -0.0546
      7 C           6.1388   -1.1061   -0.0037 C.ar    1  UNL1       -0.0612
      8 C           6.0057   -1.9362    1.0881 C.ar    1  UNL1       -0.0617
      9 C           4.7808   -2.0090    1.6917 C.ar    1  UNL1       -0.0612
     10 C           3.7120   -1.2596    1.2035 C.ar    1  UNL1       -0.0546
     11 N          -0.8677    1.1835    0.0596 N.am    1  UNL1       -0.2636
     12 C          -1.2252    0.3060    1.1250 C.3     1  UNL1        0.0451
     13 C          -1.8800   -0.9577    0.6995 C.ar    1  UNL1       -0.0297
     14 C          -1.1128   -2.0465    0.4059 C.ar    1  UNL1       -0.0571
     15 C          -1.6786   -3.2645    0.0036 C.ar    1  UNL1       -0.0615
     16 C          -3.0488   -3.3714   -0.1000 C.ar    1  UNL1       -0.0617
     17 C          -3.8399   -2.2846    0.1920 C.ar    1  UNL1       -0.0615
     18 C          -3.2460   -1.1058    0.5838 C.ar    1  UNL1       -0.0571
     19 C          -1.8630    2.0385   -0.5147 C.ar    1  UNL1        0.0369
     20 C          -1.7481    2.6152   -1.7576 C.ar    1  UNL1       -0.0403
     21 C          -2.7199    3.4828   -2.2781 C.ar    1  UNL1       -0.0600
     22 C          -3.8382    3.7765   -1.5262 C.ar    1  UNL1       -0.0616
     23 C          -3.9933    3.2226   -0.2819 C.ar    1  UNL1       -0.0600
     24 C          -3.0170    2.3782    0.1902 C.ar    1  UNL1       -0.0403
     25 H           1.3476   -0.2402    0.9438 H       1  UNL1        0.0670
     26 H           2.9495    0.9942   -1.2929 H       1  UNL1        0.0625
     27 H           5.2205    0.2767   -1.3455 H       1  UNL1        0.0623
     28 H           7.1336   -1.0669   -0.4690 H       1  UNL1        0.0618
     29 H           6.8737   -2.4998    1.4283 H       1  UNL1        0.0618
     30 H           4.6355   -2.6415    2.5420 H       1  UNL1        0.0618
     31 H           2.7383   -1.3294    1.6979 H       1  UNL1        0.0623
     32 H          -0.3412   -0.0327    1.7449 H       1  UNL1        0.0518
     33 H          -1.8749    0.7789    1.9213 H       1  UNL1        0.0518
     34 H          -0.0431   -2.0251    0.4700 H       1  UNL1        0.0621
     35 H          -1.0802   -4.1173   -0.2266 H       1  UNL1        0.0618
     36 H          -3.5052   -4.3029   -0.4090 H       1  UNL1        0.0618
     37 H          -4.9338   -2.3750    0.1078 H       1  UNL1        0.0618
     38 H          -3.9027   -0.2736    0.8095 H       1  UNL1        0.0621
     39 H          -0.9329    2.4354   -2.4241 H       1  UNL1        0.0636
     40 H          -2.6175    3.9254   -3.2468 H       1  UNL1        0.0618
     41 H          -4.6113    4.4477   -1.9040 H       1  UNL1        0.0618
     42 H          -4.8730    3.4411    0.3327 H       1  UNL1        0.0618
     43 H          -3.1480    1.9504    1.1765 H       1  UNL1        0.0636
@<TRIPOS>BOND
     1     1     2    2
     2     2     3    1
     3     3     4    2
     4     4     5    1
     5     5     6   ar
     6     6     7   ar
     7     7     8   ar
     8     8     9   ar
     9     9    10   ar
    10     2    11   am
    11    11    12    1
    12    12    13    1
    13    13    14   ar
    14    14    15   ar
    15    15    16   ar
    16    16    17   ar
    17    17    18   ar
    18    11    19    1
    19    19    20   ar
    20    20    21   ar
    21    21    22   ar
    22    22    23   ar
    23    23    24   ar
    24    10     5   ar
    25    18    13   ar
    26    24    19   ar
    27     3    25    1
    28     4    26    1
    29     6    27    1
    30     7    28    1
    31     8    29    1
    32     9    30    1
    33    10    31    1
    34    12    32    1
    35    12    33    1
    36    14    34    1
    37    15    35    1
    38    16    36    1
    39    17    37    1
    40    18    38    1
    41    20    39    1
    42    21    40    1
    43    22    41    1
    44    23    42    1
    45    24    43    1
@<TRIPOS>MOLECULE
CHEMBL4072650
 39 41 0 0 0
SMALL
GASTEIGER

@<TRIPOS>ATOM
      1 C           5.9320   -1.4462   -0.1985 C.3     1  UNL1       -0.0397
      2 C           4.7114   -0.6756    0.2247 C.ar    1  UNL1       -0.0502
      3 C           4.7031   -0.0793    1.4393 C.ar    1  UNL1       -0.0554
      4 C           3.6193    0.6314    1.8703 C.ar    1  UNL1       -0.0197
      5 C           2.5135    0.7227    1.0107 C.ar    1  UNL1        0.1212
      6 O           1.4301    1.4357    1.4408 O.3     1  UNL1       -0.4828
      7 C           0.2740    1.5355    0.6174 C.3     1  UNL1        0.1657
      8 C          -0.3086    0.2173    0.4171 C.2     1  UNL1        0.2592
      9 O           0.1449   -0.8224    1.0136 O.2     1  UNL1       -0.2714
     10 N          -1.4092   -0.0167   -0.4494 N.am    1  UNL1       -0.2427
     11 C          -2.0456    1.1357   -1.0636 C.3     1  UNL1        0.0529
     12 C          -3.1788    1.6963   -0.3322 C.ar    1  UNL1        0.0075
     13 C          -4.4928    1.3702   -0.3261 C.ar    1  UNL1       -0.0500
     14 C          -5.3897    2.0241    0.3974 C.ar    1  UNL1       -0.0544
     15 C          -4.9108    3.0946    1.1762 C.ar    1  UNL1       -0.0240
     16 S          -3.1484    3.0944    0.8089 S.2     1  UNL1       -0.1000
     17 C          -1.8936   -1.3204   -0.6894 C.ar    1  UNL1        0.1673
     18 N          -1.6030   -2.2843   -1.6081 N.ar    1  UNL1       -0.2328
     19 C          -2.1614   -3.4026   -1.6506 C.ar    1  UNL1        0.0368
     20 C          -3.1464   -3.7683   -0.7476 C.ar    1  UNL1       -0.0030
     21 S          -3.1879   -2.2016    0.2533 S.2     1  UNL1       -0.0603
     22 C           2.5150    0.1230   -0.2192 C.ar    1  UNL1       -0.0197
     23 C           3.6453   -0.5970   -0.6244 C.ar    1  UNL1       -0.0554
     24 H           5.8366   -1.7579   -1.2454 H       1  UNL1        0.0278
     25 H           6.0715   -2.3473    0.4138 H       1  UNL1        0.0278
     26 H           6.8056   -0.7467   -0.1319 H       1  UNL1        0.0278
     27 H           5.5687   -0.1653    2.0826 H       1  UNL1        0.0621
     28 H           3.6000    1.1155    2.8446 H       1  UNL1        0.0654
     29 H           0.5567    2.0326   -0.3590 H       1  UNL1        0.0795
     30 H          -0.4422    2.2087    1.1235 H       1  UNL1        0.0795
     31 H          -2.3026    0.8427   -2.1105 H       1  UNL1        0.0524
     32 H          -1.2723    1.9166   -1.1709 H       1  UNL1        0.0524
     33 H          -4.7992    0.4972   -0.9787 H       1  UNL1        0.0626
     34 H          -6.4813    1.7913    0.4337 H       1  UNL1        0.0623
     35 H          -5.4667    3.8060    1.8758 H       1  UNL1        0.0693
     36 H          -1.9050   -4.1902   -2.4229 H       1  UNL1        0.0835
     37 H          -3.7214   -4.5661   -0.5761 H       1  UNL1        0.0709
     38 H           1.6944    0.1701   -0.9395 H       1  UNL1        0.0654
     39 H           3.6449   -1.0734   -1.6014 H       1  UNL1        0.0621
@<TRIPOS>BOND
     1     1     2    1
     2     2     3   ar
     3     3     4   ar
     4     4     5   ar
     5     5     6    1
     6     6     7    1
     7     7     8    1
     8     8     9    2
     9     8    10   am
    10    10    11    1
    11    11    12    1
    12    12    13   ar
    13    13    14   ar
    14    14    15   ar
    15    15    16   ar
    16    10    17    1
    17    17    18   ar
    18    18    19   ar
    19    19    20   ar
    20    20    21   ar
    21     5    22   ar
    22    22    23   ar
    23    23     2   ar
    24    16    12   ar
    25    21    17   ar
    26     1    24    1
    27     1    25    1
    28     1    26    1
    29     3    27    1
    30     4    28    1
    31     7    29    1
    32     7    30    1
    33    11    31    1
    34    11    32    1
    35    13    33    1
    36    14    34    1
    37    15    35    1
    38    19    36    1
    39    20    37    1
    40    22    38    1
    41    23    39    1
@<TRIPOS>MOLECULE
884215
 46 48 0 0 0
SMALL
GASTEIGER

@<TRIPOS>ATOM
      1 C           7.5245    2.3277   -0.3178 C.3     1  UNL1        0.0788
      2 O           6.4436    2.3050    0.6140 O.3     1  UNL1       -0.4951
      3 C           5.2885    1.6229    0.2584 C.ar    1  UNL1        0.1201
      4 C           5.1572    0.9690   -0.9659 C.ar    1  UNL1       -0.0194
      5 C           4.0142    0.2974   -1.3111 C.ar    1  UNL1       -0.0511
      6 C           2.9532    0.2612   -0.4247 C.ar    1  UNL1       -0.0246
      7 C           1.7820   -0.4714   -0.8703 C.2     1  UNL1       -0.0497
      8 C           0.7043   -0.5865   -0.1284 C.2     1  UNL1        0.0013
      9 C          -0.4646   -1.3317   -0.6020 C.2     1  UNL1        0.2450
     10 O          -0.4256   -1.8818   -1.7432 O.2     1  UNL1       -0.2702
     11 N          -1.6427   -1.4694    0.1620 N.am    1  UNL1       -0.2482
     12 C          -1.8774   -0.7676    1.4116 C.3     1  UNL1        0.0465
     13 C          -2.5372    0.5650    1.1926 C.ar    1  UNL1       -0.0296
     14 C          -1.8143    1.7180    0.9847 C.ar    1  UNL1       -0.0571
     15 C          -2.4307    2.9474    0.7866 C.ar    1  UNL1       -0.0615
     16 C          -3.7978    3.0699    0.7893 C.ar    1  UNL1       -0.0617
     17 C          -4.5263    1.9257    0.9961 C.ar    1  UNL1       -0.0615
     18 C          -3.9194    0.6926    1.1950 C.ar    1  UNL1       -0.0571
     19 C          -2.6664   -2.3357   -0.3683 C.ar    1  UNL1        0.1280
     20 C          -3.7908   -2.6922    0.3184 C.ar    1  UNL1       -0.0213
     21 C          -4.7225   -3.5090   -0.2794 C.ar    1  UNL1       -0.0571
     22 C          -4.5243   -3.9638   -1.5569 C.ar    1  UNL1       -0.0435
     23 C          -3.3858   -3.5966   -2.2363 C.ar    1  UNL1        0.0297
     24 N          -2.5142   -2.8039   -1.6142 N.ar    1  UNL1       -0.2399
     25 C           3.0573    0.8942    0.7814 C.ar    1  UNL1       -0.0511
     26 C           4.2190    1.5659    1.1097 C.ar    1  UNL1       -0.0194
     27 H           7.2338    2.8813   -1.2276 H       1  UNL1        0.0660
     28 H           7.7783    1.2812   -0.6466 H       1  UNL1        0.0660
     29 H           8.4517    2.7117    0.1536 H       1  UNL1        0.0660
     30 H           6.0087    1.0220   -1.6279 H       1  UNL1        0.0654
     31 H           3.9397   -0.1994   -2.2643 H       1  UNL1        0.0625
     32 H           1.7475   -0.9627   -1.8512 H       1  UNL1        0.0625
     33 H           0.7076   -0.1344    0.8332 H       1  UNL1        0.0670
     34 H          -2.4498   -1.3824    2.1533 H       1  UNL1        0.0518
     35 H          -0.9008   -0.5857    1.8877 H       1  UNL1        0.0518
     36 H          -0.7367    1.6666    0.9789 H       1  UNL1        0.0621
     37 H          -1.8296    3.8366    0.6254 H       1  UNL1        0.0618
     38 H          -4.2738    4.0421    0.6323 H       1  UNL1        0.0618
     39 H          -5.6094    2.0148    0.9996 H       1  UNL1        0.0618
     40 H          -4.5764   -0.1243    1.3501 H       1  UNL1        0.0621
     41 H          -3.9605   -2.3613    1.3174 H       1  UNL1        0.0652
     42 H          -5.6355   -3.8144    0.2410 H       1  UNL1        0.0619
     43 H          -5.2467   -4.6156   -2.0615 H       1  UNL1        0.0633
     44 H          -3.2132   -3.9548   -3.2635 H       1  UNL1        0.0830
     45 H           2.2197    0.8702    1.4900 H       1  UNL1        0.0625
     46 H           4.2417    2.0564    2.0969 H       1  UNL1        0.0654
@<TRIPOS>BOND
     1     1     2    1
     2     2     3    1
     3     3     4   ar
     4     4     5   ar
     5     5     6   ar
     6     6     7    1
     7     7     8    2
     8     8     9    1
     9     9    10    2
    10     9    11   am
    11    11    12    1
    12    12    13    1
    13    13    14   ar
    14    14    15   ar
    15    15    16   ar
    16    16    17   ar
    17    17    18   ar
    18    11    19    1
    19    19    20   ar
    20    20    21   ar
    21    21    22   ar
    22    22    23   ar
    23    23    24   ar
    24     6    25   ar
    25    25    26   ar
    26    26     3   ar
    27    18    13   ar
    28    24    19   ar
    29     1    27    1
    30     1    28    1
    31     1    29    1
    32     4    30    1
    33     5    31    1
    34     7    32    1
    35     8    33    1
    36    12    34    1
    37    12    35    1
    38    14    36    1
    39    15    37    1
    40    16    38    1
    41    17    39    1
    42    18    40    1
    43    20    41    1
    44    21    42    1
    45    22    43    1
    46    23    44    1
    47    25    45    1
    48    26    46    1
@<TRIPOS>MOLECULE
884179
 38 39 0 0 0
SMALL
GASTEIGER

@<TRIPOS>ATOM
      1 C           1.1695   -2.7215    0.2238 C.3     1  UNL1        0.0365
      2 O           1.6999   -1.9021    1.1835 O.3     1  UNL1       -0.3812
      3 C           2.8184   -1.2541    0.7803 C.3     1  UNL1        0.0654
      4 C           2.7085   -0.2406   -0.3094 C.3     1  UNL1        0.0426
      5 C           4.1309    0.1063   -0.7153 C.3     1  UNL1       -0.0445
      6 N           1.9106    0.9081   -0.0379 N.pl3   1  UNL1       -0.3213
      7 C           0.5547    1.1027    0.0804 C.ar    1  UNL1        0.1650
      8 N          -0.3685    0.1571   -0.1006 N.ar    1  UNL1       -0.2075
      9 C          -1.6877    0.3697   -0.0072 C.ar    1  UNL1        0.1803
     10 C          -2.7349   -0.6028   -0.2193 C.ar    1  UNL1        0.1079
     11 C          -2.4135   -1.8699   -0.6336 C.ar    1  UNL1       -0.0326
     12 C          -3.4092   -2.8283   -0.8603 C.ar    1  UNL1       -0.0582
     13 C          -4.7352   -2.5183   -0.6721 C.ar    1  UNL1       -0.0436
     14 C          -5.0128   -1.2222   -0.2523 C.ar    1  UNL1        0.0284
     15 N          -4.0367   -0.3427   -0.0484 N.ar    1  UNL1       -0.2518
     16 N          -2.1308    1.6294    0.2926 N.ar    1  UNL1       -0.2306
     17 C          -1.2845    2.6402    0.4909 C.ar    1  UNL1        0.0751
     18 C           0.0588    2.3762    0.3844 C.ar    1  UNL1        0.1777
     19 O           0.9357    3.4217    0.5891 O.3     1  UNL1       -0.4902
     20 C           0.4570    4.7058    0.8949 C.3     1  UNL1        0.0790
     21 H           0.2468   -3.2465    0.5602 H       1  UNL1        0.0523
     22 H           0.9740   -2.1689   -0.6898 H       1  UNL1        0.0523
     23 H           1.8922   -3.5642    0.0009 H       1  UNL1        0.0523
     24 H           3.5278   -2.0494    0.3746 H       1  UNL1        0.0578
     25 H           3.4127   -0.8334    1.6378 H       1  UNL1        0.0578
     26 H           2.2852   -0.7571   -1.2230 H       1  UNL1        0.0518
     27 H           4.6737    0.6197    0.0907 H       1  UNL1        0.0248
     28 H           4.1557    0.6580   -1.6844 H       1  UNL1        0.0248
     29 H           4.6513   -0.8567   -0.9026 H       1  UNL1        0.0248
     30 H           2.5157    1.8138    0.1039 H       1  UNL1        0.1479
     31 H          -1.4128   -2.2197   -0.8201 H       1  UNL1        0.0640
     32 H          -3.1677   -3.8294   -1.1865 H       1  UNL1        0.0619
     33 H          -5.5004   -3.2527   -0.8457 H       1  UNL1        0.0633
     34 H          -6.0607   -0.9968   -0.1098 H       1  UNL1        0.0830
     35 H          -1.6274    3.6580    0.7324 H       1  UNL1        0.0869
     36 H           1.2362    5.4604    0.9876 H       1  UNL1        0.0660
     37 H          -0.1638    4.6100    1.8143 H       1  UNL1        0.0660
     38 H          -0.2687    5.0400    0.0960 H       1  UNL1        0.0660
@<TRIPOS>BOND
     1     1     2    1
     2     2     3    1
     3     3     4    1
     4     4     5    1
     5     4     6    1
     6     6     7    1
     7     7     8   ar
     8     8     9   ar
     9     9    10    1
    10    10    11   ar
    11    11    12   ar
    12    12    13   ar
    13    13    14   ar
    14    14    15   ar
    15     9    16   ar
    16    16    17   ar
    17    17    18   ar
    18    18    19    1
    19    19    20    1
    20    18     7   ar
    21    15    10   ar
    22     1    21    1
    23     1    22    1
    24     1    23    1
    25     3    24    1
    26     3    25    1
    27     4    26    1
    28     5    27    1
    29     5    28    1
    30     5    29    1
    31     6    30    1
    32    11    31    1
    33    12    32    1
    34    13    33    1
    35    14    34    1
    36    17    35    1
    37    20    36    1
    38    20    37    1
    39    20    38    1
@<TRIPOS>MOLECULE
884224
 55 57 0 0 0
SMALL
GASTEIGER

@<TRIPOS>ATOM
      1 C           7.6169    1.0575    0.7371 C.3     1  UNL1       -0.0397
      2 C           6.1684    0.7999    0.6052 C.ar    1  UNL1       -0.0504
      3 C           5.2798    1.8464    0.5890 C.ar    1  UNL1       -0.0583
      4 C           3.9228    1.6313    0.4668 C.ar    1  UNL1       -0.0543
      5 C           3.4214    0.3493    0.3571 C.ar    1  UNL1       -0.0249
      6 C           1.9500    0.1994    0.2292 C.2     1  UNL1       -0.0497
      7 C           1.3383   -0.9436    0.1178 C.2     1  UNL1        0.0009
      8 C          -0.0391   -1.2906   -0.0139 C.2     1  UNL1        0.2399
      9 O          -0.1339   -2.6406   -0.0811 O.2     1  UNL1       -0.2706
     10 N          -1.2481   -0.6209   -0.0861 N.am    1  UNL1       -0.2919
     11 C          -2.4556   -1.4609   -0.1926 C.3     1  UNL1        0.0266
     12 C          -2.5368   -2.2411   -1.4744 C.3     1  UNL1       -0.0343
     13 C          -3.9606   -2.7250   -1.6412 C.3     1  UNL1       -0.0514
     14 C          -4.5834   -3.2828   -0.4347 C.3     1  UNL1       -0.0529
     15 C          -4.1181   -2.8036    0.8987 C.3     1  UNL1       -0.0514
     16 C          -2.6398   -2.4340    0.9153 C.3     1  UNL1       -0.0343
     17 C          -1.4862    0.7779   -0.0907 C.3     1  UNL1        0.0266
     18 C          -1.2019    1.5315    1.1724 C.3     1  UNL1       -0.0343
     19 C          -0.8678    2.9838    0.8050 C.3     1  UNL1       -0.0514
     20 C          -1.9209    3.5227   -0.1471 C.3     1  UNL1       -0.0529
     21 C          -2.0207    2.7399   -1.4292 C.3     1  UNL1       -0.0514
     22 C          -1.0334    1.5596   -1.2722 C.3     1  UNL1       -0.0343
     23 C           4.2980   -0.6912    0.3727 C.ar    1  UNL1       -0.0543
     24 C           5.6735   -0.4596    0.4972 C.ar    1  UNL1       -0.0583
     25 H           8.1574    0.6254   -0.1440 H       1  UNL1        0.0278
     26 H           7.9540    0.5441    1.6622 H       1  UNL1        0.0278
     27 H           7.8176    2.1395    0.8013 H       1  UNL1        0.0278
     28 H           5.6725    2.8510    0.6749 H       1  UNL1        0.0620
     29 H           3.2461    2.4960    0.4581 H       1  UNL1        0.0624
     30 H           1.3495    1.0800    0.2341 H       1  UNL1        0.0625
     31 H           2.0744   -1.8097    0.1314 H       1  UNL1        0.0670
     32 H          -3.3503   -0.7548   -0.2401 H       1  UNL1        0.0501
     33 H          -1.9196   -3.1541   -1.3825 H       1  UNL1        0.0283
     34 H          -2.2694   -1.6627   -2.3644 H       1  UNL1        0.0283
     35 H          -4.5332   -1.8683   -2.0692 H       1  UNL1        0.0266
     36 H          -3.9327   -3.4919   -2.4530 H       1  UNL1        0.0266
     37 H          -5.6948   -3.0779   -0.4847 H       1  UNL1        0.0265
     38 H          -4.5203   -4.4042   -0.4364 H       1  UNL1        0.0265
     39 H          -4.6663   -1.9173    1.2798 H       1  UNL1        0.0266
     40 H          -4.2417   -3.6019    1.6597 H       1  UNL1        0.0266
     41 H          -2.3916   -2.0870    1.9139 H       1  UNL1        0.0283
     42 H          -2.1109   -3.3912    0.6984 H       1  UNL1        0.0283
     43 H          -2.6765    0.8632   -0.1524 H       1  UNL1        0.0501
     44 H          -0.3881    1.1150    1.7564 H       1  UNL1        0.0283
     45 H          -2.1402    1.6498    1.8099 H       1  UNL1        0.0283
     46 H          -0.9681    3.6263    1.7295 H       1  UNL1        0.0266
     47 H           0.1518    3.1233    0.4573 H       1  UNL1        0.0266
     48 H          -2.8761    3.5298    0.4205 H       1  UNL1        0.0265
     49 H          -1.6777    4.5701   -0.3675 H       1  UNL1        0.0265
     50 H          -1.6681    3.3707   -2.2768 H       1  UNL1        0.0266
     51 H          -3.0112    2.3074   -1.5786 H       1  UNL1        0.0266
     52 H          -0.0374    1.9623   -1.2061 H       1  UNL1        0.0283
     53 H          -1.1024    1.0066   -2.2310 H       1  UNL1        0.0283
     54 H           3.9854   -1.7169    0.2922 H       1  UNL1        0.0624
     55 H           6.3449   -1.3281    0.5053 H       1  UNL1        0.0620
@<TRIPOS>BOND
     1     1     2    1
     2     2     3   ar
     3     3     4   ar
     4     4     5   ar
     5     5     6    1
     6     6     7    2
     7     7     8    1
     8     8     9    2
     9     8    10   am
    10    10    11    1
    11    11    12    1
    12    12    13    1
    13    13    14    1
    14    14    15    1
    15    15    16    1
    16    10    17    1
    17    17    18    1
    18    18    19    1
    19    19    20    1
    20    20    21    1
    21    21    22    1
    22     5    23   ar
    23    23    24   ar
    24    24     2   ar
    25    16    11    1
    26    22    17    1
    27     1    25    1
    28     1    26    1
    29     1    27    1
    30     3    28    1
    31     4    29    1
    32     6    30    1
    33     7    31    1
    34    11    32    1
    35    12    33    1
    36    12    34    1
    37    13    35    1
    38    13    36    1
    39    14    37    1
    40    14    38    1
    41    15    39    1
    42    15    40    1
    43    16    41    1
    44    16    42    1
    45    17    43    1
    46    18    44    1
    47    18    45    1
    48    19    46    1
    49    19    47    1
    50    20    48    1
    51    20    49    1
    52    21    50    1
    53    21    51    1
    54    22    52    1
    55    22    53    1
    56    23    54    1
    57    24    55    1
@<TRIPOS>MOLECULE
CHEMBL4072895
 39 41 0 0 0
SMALL
GASTEIGER

@<TRIPOS>ATOM
      1 C          -1.6859   -2.5215   -1.0256 C.3     1  UNL1       -0.0493
      2 C          -1.7895   -1.0366   -0.9071 C.3     1  UNL1        0.0126
      3 N          -2.0700   -0.5677    0.4362 N.am    1  UNL1       -0.2918
      4 C          -3.4351   -0.3758    0.9036 C.3     1  UNL1        0.0462
      5 C          -3.9088    1.0071    0.6052 C.ar    1  UNL1        0.0071
      6 C          -4.5599    1.5461   -0.4657 C.ar    1  UNL1       -0.0500
      7 C          -4.8546    2.8455   -0.4583 C.ar    1  UNL1       -0.0544
      8 C          -4.4879    3.5812    0.6295 C.ar    1  UNL1       -0.0240
      9 S          -3.6992    2.4012    1.6815 S.2     1  UNL1       -0.1000
     10 C          -1.0043   -0.2678    1.3346 C.2     1  UNL1        0.2632
     11 O          -1.2716    0.1298    2.4981 O.2     1  UNL1       -0.2684
     12 C           0.3847   -0.4135    0.9246 C.ar    1  UNL1        0.1030
     13 C           1.1972    0.6972    0.7230 C.ar    1  UNL1       -0.0241
     14 C           2.4234    0.2356    0.3514 C.ar    1  UNL1        0.0006
     15 C           3.6173    0.8724    0.0246 C.ar    1  UNL1       -0.0496
     16 C           4.7319    0.1415   -0.3224 C.ar    1  UNL1       -0.0498
     17 C           6.0173    0.8194   -0.6728 C.3     1  UNL1       -0.0397
     18 C           4.6796   -1.2443   -0.3511 C.ar    1  UNL1       -0.0569
     19 C           3.4827   -1.8820   -0.0233 C.ar    1  UNL1       -0.0375
     20 C           2.3807   -1.1458    0.3203 C.ar    1  UNL1        0.0470
     21 N           1.1176   -1.5034    0.6771 N.ar    1  UNL1       -0.3506
     22 H          -0.9565   -2.8217   -1.8247 H       1  UNL1        0.0245
     23 H          -2.6548   -3.0001   -1.3049 H       1  UNL1        0.0245
     24 H          -1.3637   -3.0290   -0.1034 H       1  UNL1        0.0245
     25 H          -0.8066   -0.5873   -1.2224 H       1  UNL1        0.0462
     26 H          -2.5198   -0.6262   -1.6402 H       1  UNL1        0.0462
     27 H          -3.4349   -0.4885    1.9927 H       1  UNL1        0.0519
     28 H          -4.1401   -1.0567    0.3888 H       1  UNL1        0.0519
     29 H          -4.8157    0.8504   -1.3090 H       1  UNL1        0.0626
     30 H          -5.3819    3.3534   -1.2866 H       1  UNL1        0.0623
     31 H          -4.6356    4.6528    0.8260 H       1  UNL1        0.0693
     32 H           0.9411    1.7402    0.8313 H       1  UNL1        0.0646
     33 H           3.6814    1.9507    0.0400 H       1  UNL1        0.0627
     34 H           6.6422    0.1235   -1.2855 H       1  UNL1        0.0278
     35 H           5.8330    1.7431   -1.2813 H       1  UNL1        0.0278
     36 H           6.5578    1.1374    0.2252 H       1  UNL1        0.0278
     37 H           5.5517   -1.8221   -0.6239 H       1  UNL1        0.0621
     38 H           3.4441   -2.9605   -0.0466 H       1  UNL1        0.0638
     39 H           0.7927   -2.4778    0.7429 H       1  UNL1        0.1660
@<TRIPOS>BOND
     1     1     2    1
     2     2     3    1
     3     3     4    1
     4     4     5    1
     5     5     6   ar
     6     6     7   ar
     7     7     8   ar
     8     8     9   ar
     9     3    10   am
    10    10    11    2
    11    10    12    1
    12    12    13   ar
    13    13    14   ar
    14    14    15   ar
    15    15    16   ar
    16    16    17    1
    17    16    18   ar
    18    18    19   ar
    19    19    20   ar
    20    20    21   ar
    21     9     5   ar
    22    21    12   ar
    23    20    14   ar
    24     1    22    1
    25     1    23    1
    26     1    24    1
    27     2    25    1
    28     2    26    1
    29     4    27    1
    30     4    28    1
    31     6    29    1
    32     7    30    1
    33     8    31    1
    34    13    32    1
    35    15    33    1
    36    17    34    1
    37    17    35    1
    38    17    36    1
    39    18    37    1
    40    19    38    1
    41    21    39    1
@<TRIPOS>MOLECULE
CHEMBL4084023
 45 46 0 0 0
SMALL
GASTEIGER

@<TRIPOS>ATOM
      1 C          -2.4321   -2.0119    2.7221 C.3     1  UNL1       -0.0636
      2 C          -2.5834   -1.7107    1.2641 C.3     1  UNL1       -0.0374
      3 C          -1.8300   -0.4621    0.8801 C.3     1  UNL1        0.0234
      4 C          -2.3933    0.6937    1.6932 C.3     1  UNL1       -0.0464
      5 N          -1.8446   -0.1971   -0.5310 N.am    1  UNL1       -0.2911
      6 C          -3.0757   -0.0169   -1.2410 C.3     1  UNL1        0.0463
      7 C          -3.5907    1.3172   -1.3614 C.ar    1  UNL1        0.0071
      8 C          -3.4052    2.3332   -2.2500 C.ar    1  UNL1       -0.0500
      9 C          -4.0398    3.4907   -2.1232 C.ar    1  UNL1       -0.0544
     10 C          -4.9066    3.6552   -1.0594 C.ar    1  UNL1       -0.0240
     11 S          -4.8216    2.0968   -0.1940 S.2     1  UNL1       -0.1000
     12 C          -0.6101   -0.1339   -1.2194 C.2     1  UNL1        0.2537
     13 O          -0.5968    0.0966   -2.4540 O.2     1  UNL1       -0.2718
     14 C           0.6819   -0.3321   -0.5283 C.3     1  UNL1        0.1654
     15 O           1.7789   -0.2246   -1.4154 O.3     1  UNL1       -0.4828
     16 C           3.0478   -0.3935   -0.8738 C.ar    1  UNL1        0.1212
     17 C           3.2650   -0.6551    0.4627 C.ar    1  UNL1       -0.0197
     18 C           4.5344   -0.8087    0.9219 C.ar    1  UNL1       -0.0554
     19 C           5.6384   -0.7140    0.1016 C.ar    1  UNL1       -0.0502
     20 C           6.9995   -0.8927    0.6693 C.3     1  UNL1       -0.0397
     21 C           5.4432   -0.4530   -1.2377 C.ar    1  UNL1       -0.0554
     22 C           4.1526   -0.2978   -1.6999 C.ar    1  UNL1       -0.0197
     23 H          -2.6962   -1.1036    3.3357 H       1  UNL1        0.0230
     24 H          -1.4285   -2.3921    2.9906 H       1  UNL1        0.0230
     25 H          -3.1917   -2.7775    2.9962 H       1  UNL1        0.0230
     26 H          -2.1120   -2.5633    0.7023 H       1  UNL1        0.0280
     27 H          -3.6602   -1.6455    1.0457 H       1  UNL1        0.0280
     28 H          -0.7683   -0.5982    1.2445 H       1  UNL1        0.0498
     29 H          -1.8969    0.7349    2.7045 H       1  UNL1        0.0248
     30 H          -2.1892    1.6090    1.1106 H       1  UNL1        0.0248
     31 H          -3.4514    0.4913    1.9065 H       1  UNL1        0.0248
     32 H          -3.8526   -0.6514   -0.7203 H       1  UNL1        0.0519
     33 H          -3.0378   -0.4671   -2.2770 H       1  UNL1        0.0519
     34 H          -2.6727    2.1217   -3.1035 H       1  UNL1        0.0626
     35 H          -3.9150    4.3409   -2.8257 H       1  UNL1        0.0623
     36 H          -5.5185    4.5203   -0.7792 H       1  UNL1        0.0693
     37 H           0.8117    0.4357    0.2681 H       1  UNL1        0.0795
     38 H           0.7613   -1.3564   -0.0689 H       1  UNL1        0.0795
     39 H           2.4222   -0.7309    1.1078 H       1  UNL1        0.0654
     40 H           4.6775   -1.0154    1.9861 H       1  UNL1        0.0621
     41 H           6.9123   -1.3170    1.6927 H       1  UNL1        0.0278
     42 H           7.5947   -1.6259    0.0839 H       1  UNL1        0.0278
     43 H           7.5034    0.0730    0.7540 H       1  UNL1        0.0278
     44 H           6.2873   -0.3688   -1.9279 H       1  UNL1        0.0621
     45 H           4.0089   -0.0931   -2.7531 H       1  UNL1        0.0654
@<TRIPOS>BOND
     1     1     2    1
     2     2     3    1
     3     3     4    1
     4     3     5    1
     5     5     6    1
     6     6     7    1
     7     7     8   ar
     8     8     9   ar
     9     9    10   ar
    10    10    11   ar
    11     5    12   am
    12    12    13    2
    13    12    14    1
    14    14    15    1
    15    15    16    1
    16    16    17   ar
    17    17    18   ar
    18    18    19   ar
    19    19    20    1
    20    19    21   ar
    21    21    22   ar
    22    11     7   ar
    23    22    16   ar
    24     1    23    1
    25     1    24    1
    26     1    25    1
    27     2    26    1
    28     2    27    1
    29     3    28    1
    30     4    29    1
    31     4    30    1
    32     4    31    1
    33     6    32    1
    34     6    33    1
    35     8    34    1
    36     9    35    1
    37    10    36    1
    38    14    37    1
    39    14    38    1
    40    17    39    1
    41    18    40    1
    42    20    41    1
    43    20    42    1
    44    20    43    1
    45    21    44    1
    46    22    45    1
@<TRIPOS>MOLECULE
CHEMBL4095174
 37 38 0 0 0
SMALL
GASTEIGER

@<TRIPOS>ATOM
      1 C          -3.8084   -2.4947    0.1484 C.3     1  UNL1       -0.0493
      2 C          -3.2559   -1.5211   -0.8785 C.3     1  UNL1        0.0123
      3 N          -2.1960   -0.7149   -0.2534 N.am    1  UNL1       -0.2941
      4 C          -2.5718    0.4983    0.3633 C.3     1  UNL1        0.0460
      5 C          -2.5562    1.6155   -0.6145 C.ar    1  UNL1        0.0071
      6 C          -1.6708    2.5354   -0.9592 C.ar    1  UNL1       -0.0500
      7 C          -1.9509    3.4405   -1.9241 C.ar    1  UNL1       -0.0544
      8 C          -3.1610    3.3687   -2.5165 C.ar    1  UNL1       -0.0240
      9 S          -3.9448    1.9743   -1.6900 S.2     1  UNL1       -0.1000
     10 C          -0.8691   -1.1781   -0.3063 C.2     1  UNL1        0.2535
     11 O          -0.6100   -2.2886   -0.9100 O.2     1  UNL1       -0.2719
     12 C           0.2837   -0.4804    0.2908 C.3     1  UNL1        0.1654
     13 O           1.4767   -1.2211    0.1131 O.3     1  UNL1       -0.4828
     14 C           2.7069   -0.8386    0.5531 C.ar    1  UNL1        0.1213
     15 C           2.9233    0.3425    1.2360 C.ar    1  UNL1       -0.0187
     16 C           4.2082    0.6407    1.6405 C.ar    1  UNL1       -0.0409
     17 C           5.2895   -0.1655    1.4062 C.ar    1  UNL1        0.0520
     18 C           6.6238    0.1269    1.8168 C.1     1  UNL1        0.0992
     19 N           7.7122    0.3844    2.1533 N.1     1  UNL1       -0.1909
     20 C           5.0433   -1.3523    0.7145 C.ar    1  UNL1       -0.0409
     21 C           3.7775   -1.6785    0.2984 C.ar    1  UNL1       -0.0187
     22 H          -4.4005   -3.2764   -0.3293 H       1  UNL1        0.0245
     23 H          -4.4992   -1.9292    0.8249 H       1  UNL1        0.0245
     24 H          -2.9662   -2.8620    0.7523 H       1  UNL1        0.0245
     25 H          -4.0705   -0.8861   -1.2653 H       1  UNL1        0.0462
     26 H          -2.8553   -2.1051   -1.7351 H       1  UNL1        0.0462
     27 H          -3.6386    0.4191    0.7123 H       1  UNL1        0.0519
     28 H          -1.9472    0.7217    1.2527 H       1  UNL1        0.0519
     29 H          -0.6699    2.5829   -0.4418 H       1  UNL1        0.0626
     30 H          -1.2423    4.2533   -2.2693 H       1  UNL1        0.0623
     31 H          -3.6328    3.9732   -3.3155 H       1  UNL1        0.0693
     32 H           0.3437    0.5206   -0.1479 H       1  UNL1        0.0795
     33 H           0.1667   -0.3474    1.3949 H       1  UNL1        0.0795
     34 H           2.0810    0.9732    1.4200 H       1  UNL1        0.0654
     35 H           4.3873    1.5742    2.1818 H       1  UNL1        0.0631
     36 H           5.8714   -1.9952    0.5212 H       1  UNL1        0.0631
     37 H           3.6222   -2.6100   -0.2372 H       1  UNL1        0.0654
@<TRIPOS>BOND
     1     1     2    1
     2     2     3    1
     3     3     4    1
     4     4     5    1
     5     5     6   ar
     6     6     7   ar
     7     7     8   ar
     8     8     9   ar
     9     3    10   am
    10    10    11    2
    11    10    12    1
    12    12    13    1
    13    13    14    1
    14    14    15   ar
    15    15    16   ar
    16    16    17   ar
    17    17    18    1
    18    18    19    3
    19    17    20   ar
    20    20    21   ar
    21     9     5   ar
    22    21    14   ar
    23     1    22    1
    24     1    23    1
    25     1    24    1
    26     2    25    1
    27     2    26    1
    28     4    27    1
    29     4    28    1
    30     6    29    1
    31     7    30    1
    32     8    31    1
    33    12    32    1
    34    12    33    1
    35    15    34    1
    36    16    35    1
    37    20    36    1
    38    21    37    1
@<TRIPOS>MOLECULE
CHEMBL4062900
 42 43 0 0 0
SMALL
GASTEIGER

@<TRIPOS>ATOM
      1 C          -1.5683   -2.2460    0.3115 C.3     1  UNL1       -0.0493
      2 C          -1.2750   -1.8196   -1.1013 C.3     1  UNL1        0.0123
      3 N          -1.5803   -0.4163   -1.3396 N.am    1  UNL1       -0.2946
      4 C          -2.8728    0.0255   -1.7927 C.3     1  UNL1        0.0398
      5 C          -3.8349    0.3308   -0.7340 C.ar    1  UNL1       -0.0301
      6 C          -4.6429   -0.7024   -0.2824 C.ar    1  UNL1       -0.0571
      7 C          -5.5496   -0.4111    0.7139 C.ar    1  UNL1       -0.0615
      8 C          -5.6628    0.8527    1.2525 C.ar    1  UNL1       -0.0617
      9 C          -4.8668    1.8860    0.8128 C.ar    1  UNL1       -0.0615
     10 C          -3.9574    1.5924   -0.1869 C.ar    1  UNL1       -0.0571
     11 C          -0.5607    0.5323   -1.1130 C.2     1  UNL1        0.2535
     12 O          -0.8103    1.7602   -1.3185 O.2     1  UNL1       -0.2719
     13 C           0.7620    0.0829   -0.6465 C.3     1  UNL1        0.1654
     14 O           1.6579    1.1686   -0.4708 O.3     1  UNL1       -0.4828
     15 C           2.9408    0.8729   -0.0324 C.ar    1  UNL1        0.1212
     16 C           3.8347    1.9062    0.1480 C.ar    1  UNL1       -0.0197
     17 C           5.1323    1.6375    0.5883 C.ar    1  UNL1       -0.0554
     18 C           5.5538    0.3483    0.8526 C.ar    1  UNL1       -0.0502
     19 C           6.9488    0.1235    1.3195 C.3     1  UNL1       -0.0397
     20 C           4.6557   -0.6647    0.6688 C.ar    1  UNL1       -0.0554
     21 C           3.3679   -0.4176    0.2338 C.ar    1  UNL1       -0.0197
     22 H          -2.6124   -2.6492    0.4086 H       1  UNL1        0.0245
     23 H          -0.8778   -3.0753    0.5672 H       1  UNL1        0.0245
     24 H          -1.3829   -1.4452    1.0589 H       1  UNL1        0.0245
     25 H          -0.2087   -2.0434   -1.3084 H       1  UNL1        0.0462
     26 H          -1.8606   -2.4829   -1.7724 H       1  UNL1        0.0462
     27 H          -2.7294    0.9358   -2.4090 H       1  UNL1        0.0514
     28 H          -3.3002   -0.7413   -2.4767 H       1  UNL1        0.0514
     29 H          -4.5832   -1.7098   -0.6815 H       1  UNL1        0.0621
     30 H          -6.2115   -1.1991    1.1035 H       1  UNL1        0.0618
     31 H          -6.3989    1.0061    2.0334 H       1  UNL1        0.0618
     32 H          -4.9712    2.8595    1.2448 H       1  UNL1        0.0618
     33 H          -3.3424    2.4271   -0.5162 H       1  UNL1        0.0621
     34 H           1.2488   -0.6212   -1.3758 H       1  UNL1        0.0795
     35 H           0.6851   -0.4732    0.3082 H       1  UNL1        0.0795
     36 H           3.5317    2.9293   -0.0518 H       1  UNL1        0.0654
     37 H           5.8385    2.4529    0.7309 H       1  UNL1        0.0621
     38 H           7.6214    0.4688    0.4810 H       1  UNL1        0.0278
     39 H           7.1143   -0.9238    1.5864 H       1  UNL1        0.0278
     40 H           7.1784    0.7366    2.2368 H       1  UNL1        0.0278
     41 H           4.9381   -1.6889    0.8621 H       1  UNL1        0.0621
     42 H           2.6506   -1.2050    0.0849 H       1  UNL1        0.0654
@<TRIPOS>BOND
     1     1     2    1
     2     2     3    1
     3     3     4    1
     4     4     5    1
     5     5     6   ar
     6     6     7   ar
     7     7     8   ar
     8     8     9   ar
     9     9    10   ar
    10     3    11   am
    11    11    12    2
    12    11    13    1
    13    13    14    1
    14    14    15    1
    15    15    16   ar
    16    16    17   ar
    17    17    18   ar
    18    18    19    1
    19    18    20   ar
    20    20    21   ar
    21    10     5   ar
    22    21    15   ar
    23     1    22    1
    24     1    23    1
    25     1    24    1
    26     2    25    1
    27     2    26    1
    28     4    27    1
    29     4    28    1
    30     6    29    1
    31     7    30    1
    32     8    31    1
    33     9    32    1
    34    10    33    1
    35    13    34    1
    36    13    35    1
    37    16    36    1
    38    17    37    1
    39    19    38    1
    40    19    39    1
    41    19    40    1
    42    20    41    1
    43    21    42    1
@<TRIPOS>MOLECULE
CHEMBL4092730
 45 46 0 0 0
SMALL
GASTEIGER

@<TRIPOS>ATOM
      1 C           7.1623   -1.0050   -0.4807 C.3     1  UNL1       -0.0650
      2 C           5.7941   -1.0226    0.1871 C.3     1  UNL1       -0.0519
      3 C           4.9918    0.1642   -0.2879 C.3     1  UNL1       -0.0279
      4 C           3.6623    0.1813    0.3361 C.ar    1  UNL1       -0.0471
      5 C           2.6087   -0.4620   -0.2711 C.ar    1  UNL1       -0.0551
      6 C           1.3476   -0.4513    0.3117 C.ar    1  UNL1       -0.0197
      7 C           1.1186    0.1987    1.5036 C.ar    1  UNL1        0.1212
      8 O          -0.1231    0.2235    2.0968 O.3     1  UNL1       -0.4828
      9 C          -1.2962   -0.3559    1.6147 C.3     1  UNL1        0.1654
     10 C          -1.7675    0.1690    0.3264 C.2     1  UNL1        0.2535
     11 O          -1.1470    1.1191   -0.2311 O.2     1  UNL1       -0.2719
     12 N          -2.9148   -0.3459   -0.3479 N.am    1  UNL1       -0.2941
     13 C          -3.6232   -1.4404    0.3014 C.3     1  UNL1        0.0123
     14 C          -3.1050   -2.7784   -0.1070 C.3     1  UNL1       -0.0493
     15 C          -3.3515    0.1986   -1.6207 C.3     1  UNL1        0.0460
     16 C          -4.2773    1.2696   -1.3973 C.ar    1  UNL1        0.0071
     17 C          -4.1910    2.6320   -1.2188 C.ar    1  UNL1       -0.0500
     18 C          -5.2631    3.3803   -1.0303 C.ar    1  UNL1       -0.0544
     19 C          -6.5101    2.7484   -1.0157 C.ar    1  UNL1       -0.0240
     20 S          -6.1267    1.0500   -1.2780 S.2     1  UNL1       -0.1000
     21 C           2.2118    0.8434    2.0961 C.ar    1  UNL1       -0.0197
     22 C           3.4623    0.8373    1.5263 C.ar    1  UNL1       -0.0551
     23 H           7.1620   -1.6308   -1.4095 H       1  UNL1        0.0230
     24 H           7.4711    0.0465   -0.6990 H       1  UNL1        0.0230
     25 H           7.8997   -1.4874    0.1965 H       1  UNL1        0.0230
     26 H           5.3234   -1.9888   -0.0922 H       1  UNL1        0.0266
     27 H           5.9524   -0.9267    1.2606 H       1  UNL1        0.0266
     28 H           4.9341    0.0880   -1.3996 H       1  UNL1        0.0313
     29 H           5.5610    1.0732   -0.0382 H       1  UNL1        0.0313
     30 H           2.7739   -0.9737   -1.2035 H       1  UNL1        0.0621
     31 H           0.5416   -0.9671   -0.1714 H       1  UNL1        0.0654
     32 H          -2.0914   -0.2086    2.3773 H       1  UNL1        0.0795
     33 H          -1.1961   -1.4750    1.5136 H       1  UNL1        0.0795
     34 H          -4.7066   -1.3936    0.0914 H       1  UNL1        0.0462
     35 H          -3.5036   -1.3358    1.4003 H       1  UNL1        0.0462
     36 H          -3.9285   -3.4335   -0.3817 H       1  UNL1        0.0245
     37 H          -2.3127   -2.7107   -0.8946 H       1  UNL1        0.0245
     38 H          -2.5820   -3.2795    0.7585 H       1  UNL1        0.0245
     39 H          -3.8218   -0.6296   -2.2298 H       1  UNL1        0.0519
     40 H          -2.4744    0.5932   -2.1701 H       1  UNL1        0.0519
     41 H          -3.1408    3.0903   -1.2411 H       1  UNL1        0.0626
     42 H          -5.2582    4.4799   -0.8809 H       1  UNL1        0.0623
     43 H          -7.5162    3.2172   -0.8706 H       1  UNL1        0.0693
     44 H           1.9911    1.3465    3.0388 H       1  UNL1        0.0654
     45 H           4.2592    1.3522    2.0335 H       1  UNL1        0.0621
@<TRIPOS>BOND
     1     1     2    1
     2     2     3    1
     3     3     4    1
     4     4     5   ar
     5     5     6   ar
     6     6     7   ar
     7     7     8    1
     8     8     9    1
     9     9    10    1
    10    10    11    2
    11    10    12   am
    12    12    13    1
    13    13    14    1
    14    12    15    1
    15    15    16    1
    16    16    17   ar
    17    17    18   ar
    18    18    19   ar
    19    19    20   ar
    20     7    21   ar
    21    21    22   ar
    22    22     4   ar
    23    20    16   ar
    24     1    23    1
    25     1    24    1
    26     1    25    1
    27     2    26    1
    28     2    27    1
    29     3    28    1
    30     3    29    1
    31     5    30    1
    32     6    31    1
    33     9    32    1
    34     9    33    1
    35    13    34    1
    36    13    35    1
    37    14    36    1
    38    14    37    1
    39    14    38    1
    40    15    39    1
    41    15    40    1
    42    17    41    1
    43    18    42    1
    44    19    43    1
    45    21    44    1
    46    22    45    1
@<TRIPOS>MOLECULE
884227
 42 43 0 0 0
SMALL
GASTEIGER

@<TRIPOS>ATOM
      1 C           7.2427   -0.1116    0.4832 C.3     1  UNL1       -0.0397
      2 C           5.7847    0.1787    0.4270 C.ar    1  UNL1       -0.0504
      3 C           5.3081    1.4628    0.6055 C.ar    1  UNL1       -0.0583
      4 C           3.9604    1.7493    0.5565 C.ar    1  UNL1       -0.0543
      5 C           3.0099    0.7565    0.3241 C.ar    1  UNL1       -0.0249
      6 C           1.6037    1.1245    0.2845 C.2     1  UNL1       -0.0497
      7 C           0.6059    0.2848    0.0740 C.2     1  UNL1        0.0012
      8 C          -0.7867    0.7232    0.0470 C.2     1  UNL1        0.2439
      9 O          -0.9865    1.9745    0.2400 O.2     1  UNL1       -0.2703
     10 N          -1.8992   -0.1112   -0.1707 N.am    1  UNL1       -0.2654
     11 C          -3.2008    0.4462   -0.1715 C.ar    1  UNL1        0.0368
     12 C          -3.8899    0.5078    1.0163 C.ar    1  UNL1       -0.0403
     13 C          -5.1759    1.0594    1.0116 C.ar    1  UNL1       -0.0600
     14 C          -5.7614    1.5367   -0.1412 C.ar    1  UNL1       -0.0616
     15 C          -5.0659    1.4697   -1.3155 C.ar    1  UNL1       -0.0600
     16 C          -3.7816    0.9215   -1.3241 C.ar    1  UNL1       -0.0403
     17 C          -1.7741   -1.5285   -0.3964 C.3     1  UNL1        0.0258
     18 C          -2.4488   -1.9309   -1.7171 C.3     1  UNL1       -0.0463
     19 C          -2.4986   -2.3328    0.6737 C.3     1  UNL1       -0.0463
     20 C           3.4886   -0.5211    0.1468 C.ar    1  UNL1       -0.0543
     21 C           4.8570   -0.8138    0.1963 C.ar    1  UNL1       -0.0583
     22 H           7.7178    0.2647   -0.4655 H       1  UNL1        0.0278
     23 H           7.4428   -1.1726    0.6345 H       1  UNL1        0.0278
     24 H           7.6430    0.5290    1.3187 H       1  UNL1        0.0278
     25 H           6.0484    2.2359    0.7865 H       1  UNL1        0.0620
     26 H           3.6180    2.7543    0.6984 H       1  UNL1        0.0624
     27 H           1.3293    2.1667    0.4375 H       1  UNL1        0.0625
     28 H           0.8872   -0.7472   -0.0768 H       1  UNL1        0.0670
     29 H          -3.5052    0.1572    1.9615 H       1  UNL1        0.0636
     30 H          -5.7023    1.1015    1.9442 H       1  UNL1        0.0618
     31 H          -6.7543    1.9443   -0.0520 H       1  UNL1        0.0618
     32 H          -5.5391    1.8486   -2.2122 H       1  UNL1        0.0618
     33 H          -3.2878    0.8986   -2.2835 H       1  UNL1        0.0636
     34 H          -0.7305   -1.8579   -0.3762 H       1  UNL1        0.0499
     35 H          -2.5183   -3.0348   -1.7558 H       1  UNL1        0.0248
     36 H          -1.8460   -1.5777   -2.5686 H       1  UNL1        0.0248
     37 H          -3.4623   -1.4955   -1.6864 H       1  UNL1        0.0248
     38 H          -2.2103   -2.0220    1.6975 H       1  UNL1        0.0248
     39 H          -2.1731   -3.3933    0.5632 H       1  UNL1        0.0248
     40 H          -3.5842   -2.3127    0.5599 H       1  UNL1        0.0248
     41 H           2.8057   -1.3238   -0.0350 H       1  UNL1        0.0624
     42 H           5.2296   -1.8091    0.0581 H       1  UNL1        0.0620
@<TRIPOS>BOND
     1     1     2    1
     2     2     3   ar
     3     3     4   ar
     4     4     5   ar
     5     5     6    1
     6     6     7    2
     7     7     8    1
     8     8     9    2
     9     8    10   am
    10    10    11    1
    11    11    12   ar
    12    12    13   ar
    13    13    14   ar
    14    14    15   ar
    15    15    16   ar
    16    10    17    1
    17    17    18    1
    18    17    19    1
    19     5    20   ar
    20    20    21   ar
    21    21     2   ar
    22    16    11   ar
    23     1    22    1
    24     1    23    1
    25     1    24    1
    26     3    25    1
    27     4    26    1
    28     6    27    1
    29     7    28    1
    30    12    29    1
    31    13    30    1
    32    14    31    1
    33    15    32    1
    34    16    33    1
    35    17    34    1
    36    18    35    1
    37    18    36    1
    38    18    37    1
    39    19    38    1
    40    19    39    1
    41    19    40    1
    42    20    41    1
    43    21    42    1
@<TRIPOS>MOLECULE
CHEMBL4080738
 43 45 0 0 0
SMALL
GASTEIGER

@<TRIPOS>ATOM
      1 C           7.0099    0.5849    0.7519 C.3     1  UNL1       -0.0397
      2 C           5.5559    0.2133    0.7396 C.ar    1  UNL1       -0.0502
      3 C           5.0784   -0.8334    1.4978 C.ar    1  UNL1       -0.0554
      4 C           3.7291   -1.1631    1.4738 C.ar    1  UNL1       -0.0197
      5 C           2.8348   -0.4595    0.6977 C.ar    1  UNL1        0.1212
      6 O           1.4999   -0.8446    0.7226 O.3     1  UNL1       -0.4828
      7 C           0.5072   -0.1779   -0.0446 C.3     1  UNL1        0.1658
      8 C          -0.7937   -0.8313    0.2089 C.2     1  UNL1        0.2599
      9 O          -0.8134   -1.7838    1.0550 O.2     1  UNL1       -0.2714
     10 N          -2.0098   -0.4724   -0.4239 N.am    1  UNL1       -0.2339
     11 C          -2.1014    0.5888   -1.3664 C.3     1  UNL1        0.0538
     12 C          -2.4320    1.8468   -0.6676 C.ar    1  UNL1        0.0076
     13 C          -1.7006    2.8878   -0.1745 C.ar    1  UNL1       -0.0500
     14 C          -2.3240    3.8946    0.4310 C.ar    1  UNL1       -0.0544
     15 C          -3.6967    3.8476    0.5374 C.ar    1  UNL1       -0.0240
     16 S          -4.0809    2.3214   -0.2524 S.2     1  UNL1       -0.1000
     17 C          -3.2174   -1.1993   -0.1069 C.ar    1  UNL1        0.2047
     18 N          -4.0938   -0.9076    0.8630 N.ar    1  UNL1       -0.2224
     19 C          -5.1020   -1.8300    0.8428 C.ar    1  UNL1        0.0473
     20 C          -4.7758   -2.6826   -0.1902 C.ar    1  UNL1        0.0255
     21 N          -3.6139   -2.2891   -0.7715 N.ar    1  UNL1       -0.3215
     22 C          -2.9564   -2.9475   -1.8961 C.3     1  UNL1        0.0144
     23 C           3.3005    0.5848   -0.0611 C.ar    1  UNL1       -0.0197
     24 C           4.6499    0.9087   -0.0323 C.ar    1  UNL1       -0.0554
     25 H           7.2405    1.2197   -0.1182 H       1  UNL1        0.0278
     26 H           7.5783   -0.3650    0.6390 H       1  UNL1        0.0278
     27 H           7.2109    1.1129    1.6844 H       1  UNL1        0.0278
     28 H           5.7797   -1.3848    2.1060 H       1  UNL1        0.0621
     29 H           3.3959   -1.9813    2.0753 H       1  UNL1        0.0654
     30 H           0.4335    0.8729    0.3107 H       1  UNL1        0.0795
     31 H           0.7892   -0.1457   -1.1058 H       1  UNL1        0.0795
     32 H          -1.1574    0.7766   -1.9218 H       1  UNL1        0.0524
     33 H          -2.8827    0.3271   -2.1352 H       1  UNL1        0.0524
     34 H          -0.5886    2.8669   -0.3051 H       1  UNL1        0.0626
     35 H          -1.8089    4.7854    0.8642 H       1  UNL1        0.0623
     36 H          -4.3748    4.5485    0.9823 H       1  UNL1        0.0693
     37 H          -5.9711   -1.8986    1.4814 H       1  UNL1        0.0845
     38 H          -5.3744   -3.5517   -0.4925 H       1  UNL1        0.0825
     39 H          -2.1129   -3.5717   -1.5733 H       1  UNL1        0.0456
     40 H          -3.7050   -3.5524   -2.4217 H       1  UNL1        0.0456
     41 H          -2.5336   -2.1897   -2.6006 H       1  UNL1        0.0456
     42 H           2.5962    1.1395   -0.6727 H       1  UNL1        0.0654
     43 H           5.0314    1.7345   -0.6295 H       1  UNL1        0.0621
@<TRIPOS>BOND
     1     1     2    1
     2     2     3   ar
     3     3     4   ar
     4     4     5   ar
     5     5     6    1
     6     6     7    1
     7     7     8    1
     8     8     9    2
     9     8    10   am
    10    10    11    1
    11    11    12    1
    12    12    13   ar
    13    13    14   ar
    14    14    15   ar
    15    15    16   ar
    16    10    17    1
    17    17    18   ar
    18    18    19   ar
    19    19    20   ar
    20    20    21   ar
    21    21    22    1
    22     5    23   ar
    23    23    24   ar
    24    24     2   ar
    25    16    12   ar
    26    21    17   ar
    27     1    25    1
    28     1    26    1
    29     1    27    1
    30     3    28    1
    31     4    29    1
    32     7    30    1
    33     7    31    1
    34    11    32    1
    35    11    33    1
    36    13    34    1
    37    14    35    1
    38    15    36    1
    39    19    37    1
    40    20    38    1
    41    22    39    1
    42    22    40    1
    43    22    41    1
    44    23    42    1
    45    24    43    1
@<TRIPOS>MOLECULE
884238
 45 47 0 0 0
SMALL
GASTEIGER

@<TRIPOS>ATOM
      1 C          -1.4283    1.3091    1.4974 C.3     1  UNL1       -0.0379
      2 C          -1.3100    2.1940    0.3211 C.ar    1  UNL1       -0.0290
      3 C          -1.7765    3.5054    0.4205 C.ar    1  UNL1       -0.0571
      4 C          -1.6520    4.3371   -0.6737 C.ar    1  UNL1       -0.0614
      5 C          -1.0797    3.8945   -1.8495 C.ar    1  UNL1       -0.0600
      6 C          -0.6358    2.5939   -1.8972 C.ar    1  UNL1       -0.0400
      7 C          -0.7354    1.7134   -0.8284 C.ar    1  UNL1        0.0395
      8 N          -0.2538    0.3709   -0.9048 N.am    1  UNL1       -0.2666
      9 C          -1.0787   -0.6641   -1.4604 C.3     1  UNL1        0.0448
     10 C          -2.0453   -1.2989   -0.5788 C.ar    1  UNL1       -0.0297
     11 C          -3.3077   -0.6794   -0.4471 C.ar    1  UNL1       -0.0571
     12 C          -4.3046   -1.1761    0.3293 C.ar    1  UNL1       -0.0615
     13 C          -4.1013   -2.3380    1.0324 C.ar    1  UNL1       -0.0617
     14 C          -2.8766   -2.9901    0.9391 C.ar    1  UNL1       -0.0615
     15 C          -1.8880   -2.4572    0.1413 C.ar    1  UNL1       -0.0571
     16 C           1.0396    0.0948   -0.4454 C.2     1  UNL1        0.2244
     17 O           1.7179    1.0789    0.0248 O.2     1  UNL1       -0.2749
     18 C           1.7034   -1.2353   -0.4540 C.3     1  UNL1        0.0496
     19 C           3.0811   -1.1784    0.0449 C.ar    1  UNL1       -0.0386
     20 C           4.1374   -0.9505   -0.7944 C.ar    1  UNL1       -0.0581
     21 C           5.4427   -0.9010   -0.2968 C.ar    1  UNL1       -0.0615
     22 C           5.6745   -1.0812    1.0410 C.ar    1  UNL1       -0.0617
     23 C           4.6223   -1.3096    1.8863 C.ar    1  UNL1       -0.0615
     24 C           3.3354   -1.3560    1.3799 C.ar    1  UNL1       -0.0581
     25 H          -1.0136    1.8819    2.3789 H       1  UNL1        0.0278
     26 H          -2.4911    1.1265    1.7528 H       1  UNL1        0.0278
     27 H          -0.8242    0.4025    1.4263 H       1  UNL1        0.0278
     28 H          -2.2208    3.8307    1.3498 H       1  UNL1        0.0621
     29 H          -2.0077    5.3765   -0.6339 H       1  UNL1        0.0618
     30 H          -0.9890    4.5700   -2.7083 H       1  UNL1        0.0618
     31 H          -0.1860    2.2353   -2.8112 H       1  UNL1        0.0636
     32 H          -1.6685   -0.2320   -2.3279 H       1  UNL1        0.0518
     33 H          -0.4764   -1.4737   -1.9403 H       1  UNL1        0.0518
     34 H          -3.4945    0.2329   -0.9873 H       1  UNL1        0.0621
     35 H          -5.2812   -0.6935    0.4288 H       1  UNL1        0.0618
     36 H          -4.8601   -2.7788    1.6663 H       1  UNL1        0.0618
     37 H          -2.7441   -3.8995    1.5011 H       1  UNL1        0.0618
     38 H          -0.9571   -2.9827    0.0744 H       1  UNL1        0.0621
     39 H           1.0552   -1.8740    0.2191 H       1  UNL1        0.0407
     40 H           1.6419   -1.6294   -1.4835 H       1  UNL1        0.0407
     41 H           4.0017   -0.8012   -1.8666 H       1  UNL1        0.0620
     42 H           6.2844   -0.7232   -0.9403 H       1  UNL1        0.0618
     43 H           6.6801   -1.0504    1.4730 H       1  UNL1        0.0618
     44 H           4.7624   -1.4584    2.9575 H       1  UNL1        0.0618
     45 H           2.5080   -1.5356    2.0438 H       1  UNL1        0.0620
@<TRIPOS>BOND
     1     1     2    1
     2     2     3   ar
     3     3     4   ar
     4     4     5   ar
     5     5     6   ar
     6     6     7   ar
     7     7     8    1
     8     8     9    1
     9     9    10    1
    10    10    11   ar
    11    11    12   ar
    12    12    13   ar
    13    13    14   ar
    14    14    15   ar
    15     8    16   am
    16    16    17    2
    17    16    18    1
    18    18    19    1
    19    19    20   ar
    20    20    21   ar
    21    21    22   ar
    22    22    23   ar
    23    23    24   ar
    24     7     2   ar
    25    15    10   ar
    26    24    19   ar
    27     1    25    1
    28     1    26    1
    29     1    27    1
    30     3    28    1
    31     4    29    1
    32     5    30    1
    33     6    31    1
    34     9    32    1
    35     9    33    1
    36    11    34    1
    37    12    35    1
    38    13    36    1
    39    14    37    1
    40    15    38    1
    41    18    39    1
    42    18    40    1
    43    20    41    1
    44    21    42    1
    45    22    43    1
    46    23    44    1
    47    24    45    1
@<TRIPOS>MOLECULE
1189568
 44 43 0 0 0
SMALL
GASTEIGER

@<TRIPOS>ATOM
      1 C           3.6742   -0.9803    1.3705 C.3     1  UNL1       -0.0653
      2 C           4.1904    0.1586    0.5534 C.3     1  UNL1       -0.0559
      3 C           3.2668    1.3024    0.4660 C.3     1  UNL1       -0.0529
      4 C           1.9722    1.1316   -0.2152 C.3     1  UNL1       -0.0464
      5 C           1.0472    0.1399    0.3679 C.3     1  UNL1        0.0014
      6 P          -0.5275    0.1486   -0.6260 P.3     1  UNL1        0.0944
      7 O          -0.1190    0.5408   -2.0237 O.2     1  UNL1       -0.3204
      8 C          -1.6215    1.3783    0.0544 C.3     1  UNL1        0.0098
      9 C          -3.0375    0.8881    0.2403 C.3     1  UNL1       -0.0557
     10 C          -1.6782    2.5587   -0.8894 C.3     1  UNL1       -0.0466
     11 C          -2.5928    3.6478   -0.3741 C.3     1  UNL1       -0.0646
     12 C          -1.2089   -1.5065   -0.6565 C.3     1  UNL1        0.0098
     13 C          -0.5545   -2.3852   -1.7029 C.3     1  UNL1       -0.0557
     14 C          -1.0833   -2.2190    0.6716 C.3     1  UNL1       -0.0466
     15 C          -1.6861   -3.6015    0.5383 C.3     1  UNL1       -0.0646
     16 H           2.8589   -0.6168    2.0185 H       1  UNL1        0.0230
     17 H           4.4798   -1.2942    2.1200 H       1  UNL1        0.0230
     18 H           3.4214   -1.8314    0.7401 H       1  UNL1        0.0230
     19 H           4.3721   -0.2410   -0.4927 H       1  UNL1        0.0263
     20 H           5.2139    0.4677    0.9264 H       1  UNL1        0.0263
     21 H           3.1166    1.7902    1.4991 H       1  UNL1        0.0265
     22 H           3.8672    2.1463   -0.0430 H       1  UNL1        0.0265
     23 H           1.4900    2.1460   -0.3450 H       1  UNL1        0.0270
     24 H           2.1743    0.7671   -1.2852 H       1  UNL1        0.0270
     25 H           1.4436   -0.8824    0.2124 H       1  UNL1        0.0342
     26 H           0.7827    0.2607    1.4167 H       1  UNL1        0.0342
     27 H          -1.2213    1.7679    1.0192 H       1  UNL1        0.0375
     28 H          -3.1617    0.2925    1.1665 H       1  UNL1        0.0237
     29 H          -3.3106    0.3296   -0.6653 H       1  UNL1        0.0237
     30 H          -3.7515    1.7340    0.3196 H       1  UNL1        0.0237
     31 H          -2.0424    2.2055   -1.8894 H       1  UNL1        0.0269
     32 H          -0.6721    2.9802   -0.9600 H       1  UNL1        0.0269
     33 H          -2.4763    3.8094    0.6991 H       1  UNL1        0.0230
     34 H          -2.2713    4.6027   -0.8800 H       1  UNL1        0.0230
     35 H          -3.6459    3.4988   -0.6974 H       1  UNL1        0.0230
     36 H          -2.2835   -1.4485   -0.9229 H       1  UNL1        0.0375
     37 H          -0.2652   -1.8268   -2.6080 H       1  UNL1        0.0237
     38 H           0.3257   -2.9055   -1.2247 H       1  UNL1        0.0237
     39 H          -1.2815   -3.2034   -1.9227 H       1  UNL1        0.0237
     40 H          -0.0200   -2.3547    0.9583 H       1  UNL1        0.0269
     41 H          -1.5583   -1.6201    1.4708 H       1  UNL1        0.0269
     42 H          -0.9133   -4.3754    0.3523 H       1  UNL1        0.0230
     43 H          -2.4690   -3.6142   -0.2550 H       1  UNL1        0.0230
     44 H          -2.2438   -3.7865    1.4973 H       1  UNL1        0.0230
@<TRIPOS>BOND
     1     1     2    1
     2     2     3    1
     3     3     4    1
     4     4     5    1
     5     5     6    1
     6     6     7    2
     7     6     8    1
     8     8     9    1
     9     8    10    1
    10    10    11    1
    11     6    12    1
    12    12    13    1
    13    12    14    1
    14    14    15    1
    15     1    16    1
    16     1    17    1
    17     1    18    1
    18     2    19    1
    19     2    20    1
    20     3    21    1
    21     3    22    1
    22     4    23    1
    23     4    24    1
    24     5    25    1
    25     5    26    1
    26     8    27    1
    27     9    28    1
    28     9    29    1
    29     9    30    1
    30    10    31    1
    31    10    32    1
    32    11    33    1
    33    11    34    1
    34    11    35    1
    35    12    36    1
    36    13    37    1
    37    13    38    1
    38    13    39    1
    39    14    40    1
    40    14    41    1
    41    15    42    1
    42    15    43    1
    43    15    44    1
@<TRIPOS>MOLECULE
884212
 43 44 0 0 0
SMALL
GASTEIGER

@<TRIPOS>ATOM
      1 C          -5.5125    2.2286   -1.1093 C.3     1  UNL1       -0.0638
      2 C          -4.1541    1.5672   -1.0936 C.3     1  UNL1       -0.0396
      3 C          -3.4211    1.8974    0.1878 C.3     1  UNL1        0.0198
      4 N          -2.0875    1.2358    0.1805 N.am    1  UNL1       -0.2679
      5 C          -1.0126    1.9382   -0.3591 C.2     1  UNL1        0.2437
      6 O          -1.3067    3.1197   -0.7985 O.2     1  UNL1       -0.2703
      7 C           0.3683    1.5504   -0.5012 C.2     1  UNL1        0.0012
      8 C           0.9337    0.4269   -0.1480 C.2     1  UNL1       -0.0497
      9 C           2.3334    0.0550   -0.3009 C.ar    1  UNL1       -0.0246
     10 C           2.8159   -1.1669    0.1126 C.ar    1  UNL1       -0.0511
     11 C           4.1395   -1.4838   -0.0468 C.ar    1  UNL1       -0.0194
     12 C           5.0295   -0.5831   -0.6289 C.ar    1  UNL1        0.1201
     13 O           6.3685   -0.8942   -0.7942 O.3     1  UNL1       -0.4951
     14 C           6.8372   -2.1659   -0.3563 C.3     1  UNL1        0.0788
     15 C           4.5743    0.6299   -1.0447 C.ar    1  UNL1       -0.0194
     16 C           3.2311    0.9225   -0.8706 C.ar    1  UNL1       -0.0511
     17 C          -2.1079   -0.0593    0.7437 C.ar    1  UNL1        0.0365
     18 C          -1.8865   -0.2184    2.0911 C.ar    1  UNL1       -0.0403
     19 C          -1.9096   -1.4549    2.7104 C.ar    1  UNL1       -0.0600
     20 C          -2.1649   -2.5857    1.9532 C.ar    1  UNL1       -0.0616
     21 C          -2.3887   -2.4532    0.6079 C.ar    1  UNL1       -0.0600
     22 C          -2.3619   -1.2153    0.0088 C.ar    1  UNL1       -0.0403
     23 H          -5.4670    3.1413   -0.4497 H       1  UNL1        0.0230
     24 H          -6.3181    1.5315   -0.7862 H       1  UNL1        0.0230
     25 H          -5.7289    2.5357   -2.1496 H       1  UNL1        0.0230
     26 H          -4.3064    0.4961   -1.2371 H       1  UNL1        0.0278
     27 H          -3.5470    2.0126   -1.9212 H       1  UNL1        0.0278
     28 H          -4.0304    1.5525    1.0289 H       1  UNL1        0.0469
     29 H          -3.2241    2.9657    0.2678 H       1  UNL1        0.0469
     30 H           1.0482    2.2816   -0.9642 H       1  UNL1        0.0670
     31 H           0.3126   -0.3324    0.3132 H       1  UNL1        0.0625
     32 H           2.1226   -1.8526    0.5593 H       1  UNL1        0.0625
     33 H           4.5682   -2.4312    0.2617 H       1  UNL1        0.0654
     34 H           6.5485   -2.2456    0.7244 H       1  UNL1        0.0660
     35 H           7.9234   -2.2543   -0.4333 H       1  UNL1        0.0660
     36 H           6.3353   -2.9659   -0.9386 H       1  UNL1        0.0660
     37 H           5.2418    1.3454   -1.4983 H       1  UNL1        0.0654
     38 H           2.9338    1.9026   -1.2222 H       1  UNL1        0.0625
     39 H          -1.6838    0.6400    2.7163 H       1  UNL1        0.0636
     40 H          -1.7387   -1.6053    3.7673 H       1  UNL1        0.0618
     41 H          -2.1851   -3.5695    2.4356 H       1  UNL1        0.0618
     42 H          -2.5858   -3.3268    0.0242 H       1  UNL1        0.0618
     43 H          -2.5366   -1.1122   -1.0418 H       1  UNL1        0.0636
@<TRIPOS>BOND
     1     1     2    1
     2     2     3    1
     3     3     4    1
     4     4     5   am
     5     5     6    2
     6     5     7    1
     7     7     8    2
     8     8     9    1
     9     9    10   ar
    10    10    11   ar
    11    11    12   ar
    12    12    13    1
    13    13    14    1
    14    12    15   ar
    15    15    16   ar
    16     4    17    1
    17    17    18   ar
    18    18    19   ar
    19    19    20   ar
    20    20    21   ar
    21    21    22   ar
    22    16     9   ar
    23    22    17   ar
    24     1    23    1
    25     1    24    1
    26     1    25    1
    27     2    26    1
    28     2    27    1
    29     3    28    1
    30     3    29    1
    31     7    30    1
    32     8    31    1
    33    10    32    1
    34    11    33    1
    35    14    34    1
    36    14    35    1
    37    14    36    1
    38    15    37    1
    39    16    38    1
    40    18    39    1
    41    19    40    1
    42    20    41    1
    43    21    42    1
    44    22    43    1
@<TRIPOS>MOLECULE
CHEMBL4067021
 38 40 0 0 0
SMALL
GASTEIGER

@<TRIPOS>ATOM
      1 C          -1.9065   -2.6167    0.4865 C.3     1  UNL1       -0.0493
      2 C          -1.9548   -1.1190    0.6205 C.3     1  UNL1        0.0125
      3 N          -2.0572   -0.4259   -0.6448 N.am    1  UNL1       -0.2925
      4 C          -3.4011   -0.1902   -1.1335 C.3     1  UNL1        0.0462
      5 C          -3.9613    1.0939   -0.6642 C.ar    1  UNL1        0.0071
      6 C          -4.6889    1.3559    0.5001 C.ar    1  UNL1       -0.0500
      7 C          -5.0897    2.6013    0.7037 C.ar    1  UNL1       -0.0544
      8 C          -4.8153    3.6005   -0.1717 C.ar    1  UNL1       -0.0240
      9 S          -3.8590    2.6740   -1.4703 S.2     1  UNL1       -0.1000
     10 C          -0.9542    0.0168   -1.3947 C.2     1  UNL1        0.2536
     11 O          -1.1598    0.6127   -2.5081 O.2     1  UNL1       -0.2694
     12 C           0.3821   -0.1668   -0.9697 C.ar    1  UNL1        0.0752
     13 C           1.4619    0.5461   -0.6443 C.ar    1  UNL1       -0.0347
     14 C           2.6175   -0.0058   -0.2670 C.ar    1  UNL1       -0.0098
     15 C           3.8272    0.6554    0.0998 C.ar    1  UNL1       -0.0506
     16 C           4.9473   -0.0344    0.4685 C.ar    1  UNL1       -0.0498
     17 C           6.1826    0.7546    0.8356 C.3     1  UNL1       -0.0397
     18 C           4.9946   -1.4068    0.5141 C.ar    1  UNL1       -0.0578
     19 C           3.8248   -2.0925    0.1602 C.ar    1  UNL1       -0.0472
     20 C           2.7266   -1.3828   -0.2022 C.ar    1  UNL1        0.0201
     21 S           1.0489   -1.8861   -0.7214 S.2     1  UNL1       -0.0837
     22 H          -1.7421   -2.9236   -0.5611 H       1  UNL1        0.0245
     23 H          -2.8303   -3.0750    0.9045 H       1  UNL1        0.0245
     24 H          -1.0520   -2.9888    1.0832 H       1  UNL1        0.0245
     25 H          -2.7973   -0.8336    1.2873 H       1  UNL1        0.0462
     26 H          -1.0412   -0.7277    1.1249 H       1  UNL1        0.0462
     27 H          -3.3475   -0.1612   -2.2465 H       1  UNL1        0.0519
     28 H          -4.1009   -0.9857   -0.8727 H       1  UNL1        0.0519
     29 H          -4.8845    0.5062    1.1784 H       1  UNL1        0.0626
     30 H          -5.6880    2.8995    1.6303 H       1  UNL1        0.0623
     31 H          -5.0122    4.6344   -0.2405 H       1  UNL1        0.0693
     32 H           1.3475    1.6885   -0.7060 H       1  UNL1        0.0636
     33 H           3.9007    1.7351    0.0989 H       1  UNL1        0.0626
     34 H           6.2601    0.7070    1.9402 H       1  UNL1        0.0278
     35 H           6.0731    1.7648    0.4302 H       1  UNL1        0.0278
     36 H           7.0763    0.2474    0.3718 H       1  UNL1        0.0278
     37 H           5.8840   -1.9058    0.8067 H       1  UNL1        0.0621
     38 H           3.7885   -3.1658    0.1730 H       1  UNL1        0.0629
@<TRIPOS>BOND
     1     1     2    1
     2     2     3    1
     3     3     4    1
     4     4     5    1
     5     5     6   ar
     6     6     7   ar
     7     7     8   ar
     8     8     9   ar
     9     3    10   am
    10    10    11    2
    11    10    12    1
    12    12    13   ar
    13    13    14   ar
    14    14    15   ar
    15    15    16   ar
    16    16    17    1
    17    16    18   ar
    18    18    19   ar
    19    19    20   ar
    20    20    21   ar
    21     9     5   ar
    22    21    12   ar
    23    20    14   ar
    24     1    22    1
    25     1    23    1
    26     1    24    1
    27     2    25    1
    28     2    26    1
    29     4    27    1
    30     4    28    1
    31     6    29    1
    32     7    30    1
    33     8    31    1
    34    13    32    1
    35    15    33    1
    36    17    34    1
    37    17    35    1
    38    17    36    1
    39    18    37    1
    40    19    38    1
@<TRIPOS>MOLECULE
884205
 42 44 0 0 0
SMALL
GASTEIGER

@<TRIPOS>ATOM
      1 C          -1.2078   -3.1742   -0.2355 C.3     1  UNL1       -0.0493
      2 C          -1.6535   -1.8665    0.2971 C.3     1  UNL1        0.0125
      3 N          -1.9142   -0.8401   -0.6401 N.am    1  UNL1       -0.2939
      4 C          -3.2030   -0.5667   -1.2517 C.3     1  UNL1        0.0400
      5 C          -3.9598    0.3534   -0.3700 C.ar    1  UNL1       -0.0301
      6 C          -3.9004    1.7277   -0.4671 C.ar    1  UNL1       -0.0571
      7 C          -4.6247    2.5639    0.3757 C.ar    1  UNL1       -0.0615
      8 C          -5.4341    2.0139    1.3461 C.ar    1  UNL1       -0.0617
      9 C          -5.5236    0.6637    1.4780 C.ar    1  UNL1       -0.0615
     10 C          -4.7955   -0.1513    0.6302 C.ar    1  UNL1       -0.0571
     11 C          -0.8526    0.0061   -1.0308 C.2     1  UNL1        0.2397
     12 O          -0.9755    0.9540   -1.8488 O.2     1  UNL1       -0.2706
     13 C           0.4933   -0.2207   -0.4555 C.2     1  UNL1        0.0009
     14 C           1.5019    0.5484   -0.7930 C.2     1  UNL1       -0.0496
     15 C           2.8353    0.3529   -0.2468 C.ar    1  UNL1       -0.0212
     16 C           3.1930   -0.6145    0.6493 C.ar    1  UNL1       -0.0509
     17 C           4.4895   -0.7326    1.1213 C.ar    1  UNL1       -0.0156
     18 C           5.4915    0.1127    0.7187 C.ar    1  UNL1        0.1663
     19 C           5.1544    1.0944   -0.1831 C.ar    1  UNL1        0.1668
     20 C           3.8739    1.2170   -0.6541 C.ar    1  UNL1       -0.0090
     21 O           6.3310    1.8147   -0.4327 O.3     1  UNL1       -0.4526
     22 C           7.4533    1.0644   -0.0081 C.3     1  UNL1        0.2332
     23 O           6.8506    0.2452    1.0035 O.3     1  UNL1       -0.4526
     24 H          -1.3699   -3.3280   -1.3134 H       1  UNL1        0.0245
     25 H          -0.1098   -3.2695   -0.0634 H       1  UNL1        0.0245
     26 H          -1.6615   -4.0411    0.3052 H       1  UNL1        0.0245
     27 H          -1.0300   -1.4834    1.1231 H       1  UNL1        0.0462
     28 H          -2.6515   -2.0791    0.8060 H       1  UNL1        0.0462
     29 H          -3.0887   -0.0432   -2.2312 H       1  UNL1        0.0514
     30 H          -3.7722   -1.4886   -1.4739 H       1  UNL1        0.0514
     31 H          -3.2841    2.2045   -1.2151 H       1  UNL1        0.0621
     32 H          -4.5445    3.6321    0.2602 H       1  UNL1        0.0618
     33 H          -6.0016    2.6626    2.0068 H       1  UNL1        0.0618
     34 H          -6.1378    0.1601    2.2158 H       1  UNL1        0.0618
     35 H          -4.8551   -1.2164    0.7135 H       1  UNL1        0.0621
     36 H           0.6650   -1.0186    0.2401 H       1  UNL1        0.0670
     37 H           1.3242    1.3678   -1.5152 H       1  UNL1        0.0625
     38 H           2.4165   -1.3076    0.9925 H       1  UNL1        0.0625
     39 H           4.7213   -1.5259    1.8382 H       1  UNL1        0.0655
     40 H           3.6281    1.9893   -1.3580 H       1  UNL1        0.0661
     41 H           8.2157    1.7462    0.4698 H       1  UNL1        0.1166
     42 H           7.9132    0.4727   -0.8036 H       1  UNL1        0.1166
@<TRIPOS>BOND
     1     1     2    1
     2     2     3    1
     3     3     4    1
     4     4     5    1
     5     5     6   ar
     6     6     7   ar
     7     7     8   ar
     8     8     9   ar
     9     9    10   ar
    10     3    11   am
    11    11    12    2
    12    11    13    1
    13    13    14    2
    14    14    15    1
    15    15    16   ar
    16    16    17   ar
    17    17    18   ar
    18    18    19   ar
    19    19    20   ar
    20    19    21    1
    21    21    22    1
    22    22    23    1
    23    10     5   ar
    24    20    15   ar
    25    23    18    1
    26     1    24    1
    27     1    25    1
    28     1    26    1
    29     2    27    1
    30     2    28    1
    31     4    29    1
    32     4    30    1
    33     6    31    1
    34     7    32    1
    35     8    33    1
    36     9    34    1
    37    10    35    1
    38    13    36    1
    39    14    37    1
    40    16    38    1
    41    17    39    1
    42    20    40    1
    43    22    41    1
    44    22    42    1
@<TRIPOS>MOLECULE
884166
 53 57 0 0 0
SMALL
GASTEIGER

@<TRIPOS>ATOM
      1 C           0.1295    5.0607   -0.1101 C.3     1  UNL1       -0.0591
      2 C           0.4585    3.6470    0.2401 C.3     1  UNL1       -0.0228
      3 C           0.2995    3.4478    1.7168 C.3     1  UNL1       -0.0591
      4 C           1.8998    3.3630   -0.1241 C.3     1  UNL1        0.0158
      5 C           2.1424    1.9060   -0.1972 C.2     1  UNL1        0.1633
      6 O           3.3570    1.5213   -0.2905 O.2     1  UNL1       -0.2922
      7 C           1.0676    0.9008   -0.1677 C.2     1  UNL1        0.0377
      8 C          -0.1917    1.2952   -0.3159 C.2     1  UNL1        0.0162
      9 C          -0.4895    2.7349   -0.5077 C.3     1  UNL1       -0.0086
     10 N          -1.2294    0.2982   -0.2853 N.pl3   1  UNL1       -0.3253
     11 C          -2.3975    0.5646   -1.0709 C.3     1  UNL1        0.0165
     12 C          -3.5813   -0.2734   -0.6579 C.3     1  UNL1       -0.0116
     13 C          -3.2117   -1.6326   -0.2754 C.ar    1  UNL1       -0.0409
     14 C          -4.1372   -2.6521   -0.4929 C.ar    1  UNL1       -0.0582
     15 C          -3.8599   -3.9698   -0.1603 C.ar    1  UNL1       -0.0615
     16 C          -2.6336   -4.2729    0.4004 C.ar    1  UNL1       -0.0614
     17 C          -1.7153   -3.2651    0.6169 C.ar    1  UNL1       -0.0565
     18 C          -2.0011   -1.9316    0.2783 C.ar    1  UNL1       -0.0238
     19 C          -1.0169   -0.8576    0.5151 C.3     1  UNL1        0.0510
     20 C           0.3599   -1.4407    0.3913 C.3     1  UNL1       -0.0020
     21 C           1.4418   -0.5026    0.0215 C.3     1  UNL1        0.0934
     22 S           2.7963   -0.5349    1.2696 S.3     1  UNL1       -0.1383
     23 C           4.1382   -1.4587    0.4670 C.3     1  UNL1       -0.0039
     24 C           3.6460   -2.8725    0.1732 C.3     1  UNL1       -0.0348
     25 C           2.7727   -2.8685   -1.0475 C.3     1  UNL1       -0.0039
     26 S           2.2387   -1.1782   -1.4953 S.3     1  UNL1       -0.1383
     27 H           0.7489    5.4930   -0.8939 H       1  UNL1        0.0235
     28 H          -0.9363    5.1362   -0.4090 H       1  UNL1        0.0235
     29 H           0.2455    5.7102    0.7956 H       1  UNL1        0.0235
     30 H           0.4327    2.3720    1.9593 H       1  UNL1        0.0235
     31 H          -0.7283    3.7156    2.0327 H       1  UNL1        0.0235
     32 H           1.0447    4.0120    2.2905 H       1  UNL1        0.0235
     33 H           2.5380    3.8754    0.6226 H       1  UNL1        0.0350
     34 H           2.1379    3.8198   -1.1173 H       1  UNL1        0.0350
     35 H          -1.4968    2.9721   -0.1375 H       1  UNL1        0.0331
     36 H          -0.4029    2.9685   -1.6024 H       1  UNL1        0.0331
     37 H          -2.1557    0.2763   -2.1301 H       1  UNL1        0.0467
     38 H          -2.6613    1.6316   -1.0988 H       1  UNL1        0.0467
     39 H          -4.0683    0.2593    0.1896 H       1  UNL1        0.0328
     40 H          -4.3043   -0.3138   -1.4960 H       1  UNL1        0.0328
     41 H          -5.1033   -2.4599   -0.9269 H       1  UNL1        0.0620
     42 H          -4.5566   -4.7768   -0.3175 H       1  UNL1        0.0618
     43 H          -2.3879   -5.2960    0.6712 H       1  UNL1        0.0618
     44 H          -0.7763   -3.5196    1.0500 H       1  UNL1        0.0621
     45 H          -1.1615   -0.5368    1.5864 H       1  UNL1        0.0550
     46 H           0.2899   -2.3360   -0.2875 H       1  UNL1        0.0311
     47 H           0.6169   -1.8967    1.3911 H       1  UNL1        0.0311
     48 H           5.0457   -1.4943    1.0991 H       1  UNL1        0.0377
     49 H           4.4074   -1.0258   -0.5224 H       1  UNL1        0.0377
     50 H           3.1422   -3.2672    1.0736 H       1  UNL1        0.0281
     51 H           4.5701   -3.4879    0.0326 H       1  UNL1        0.0281
     52 H           3.3434   -3.3354   -1.8858 H       1  UNL1        0.0377
     53 H           1.8935   -3.5241   -0.8613 H       1  UNL1        0.0377
@<TRIPOS>BOND
     1     1     2    1
     2     2     3    1
     3     2     4    1
     4     4     5    1
     5     5     6    2
     6     5     7    1
     7     7     8    2
     8     8     9    1
     9     8    10    1
    10    10    11    1
    11    11    12    1
    12    12    13    1
    13    13    14   ar
    14    14    15   ar
    15    15    16   ar
    16    16    17   ar
    17    17    18   ar
    18    18    19    1
    19    19    20    1
    20    20    21    1
    21    21    22    1
    22    22    23    1
    23    23    24    1
    24    24    25    1
    25    25    26    1
    26     9     2    1
    27    19    10    1
    28    26    21    1
    29    21     7    1
    30    18    13   ar
    31     1    27    1
    32     1    28    1
    33     1    29    1
    34     3    30    1
    35     3    31    1
    36     3    32    1
    37     4    33    1
    38     4    34    1
    39     9    35    1
    40     9    36    1
    41    11    37    1
    42    11    38    1
    43    12    39    1
    44    12    40    1
    45    14    41    1
    46    15    42    1
    47    16    43    1
    48    17    44    1
    49    19    45    1
    50    20    46    1
    51    20    47    1
    52    23    48    1
    53    23    49    1
    54    24    50    1
    55    24    51    1
    56    25    52    1
    57    25    53    1
@<TRIPOS>MOLECULE
CHEMBL4063891
 36 37 0 0 0
SMALL
GASTEIGER

@<TRIPOS>ATOM
      1 C           1.4440   -2.1829    0.5431 C.3     1  UNL1       -0.0493
      2 C           1.1474   -1.8902   -0.9135 C.3     1  UNL1        0.0123
      3 N           1.4090   -0.4898   -1.1554 N.am    1  UNL1       -0.2941
      4 C           2.7423   -0.0995   -1.5662 C.3     1  UNL1        0.0460
      5 C           3.6228    0.2066   -0.4374 C.ar    1  UNL1        0.0071
      6 C           3.9224    1.3135    0.2878 C.ar    1  UNL1       -0.0500
      7 C           4.8121    1.2426    1.2903 C.ar    1  UNL1       -0.0544
      8 C           5.4071    0.0674    1.5742 C.ar    1  UNL1       -0.0240
      9 S           4.7147   -1.0434    0.3943 S.2     1  UNL1       -0.1000
     10 C           0.3695    0.4655   -0.9847 C.2     1  UNL1        0.2535
     11 O           0.5666    1.6995   -1.1888 O.2     1  UNL1       -0.2719
     12 C          -0.9660    0.0302   -0.5637 C.3     1  UNL1        0.1654
     13 O          -1.8546    1.1189   -0.4508 O.3     1  UNL1       -0.4828
     14 C          -3.1738    0.9301   -0.0640 C.ar    1  UNL1        0.1212
     15 C          -4.0133    2.0161    0.0357 C.ar    1  UNL1       -0.0199
     16 C          -5.3301    1.8936    0.4137 C.ar    1  UNL1       -0.0583
     17 C          -5.8223    0.6325    0.7025 C.ar    1  UNL1       -0.0615
     18 C          -5.0009   -0.4868    0.6118 C.ar    1  UNL1       -0.0583
     19 C          -3.6899   -0.3126    0.2291 C.ar    1  UNL1       -0.0199
     20 H           1.6815   -1.2517    1.0974 H       1  UNL1        0.0245
     21 H           0.5644   -2.6775    1.0014 H       1  UNL1        0.0245
     22 H           2.2978   -2.8893    0.6663 H       1  UNL1        0.0245
     23 H           1.8673   -2.4712   -1.5228 H       1  UNL1        0.0462
     24 H           0.1006   -2.1653   -1.1798 H       1  UNL1        0.0462
     25 H           2.6934    0.7417   -2.2992 H       1  UNL1        0.0519
     26 H           3.1494   -0.9776   -2.1552 H       1  UNL1        0.0519
     27 H           3.3962    2.2836    0.0130 H       1  UNL1        0.0626
     28 H           5.0834    2.1471    1.9134 H       1  UNL1        0.0623
     29 H           6.1216   -0.2460    2.2915 H       1  UNL1        0.0693
     30 H          -1.3883   -0.7028   -1.2970 H       1  UNL1        0.0795
     31 H          -0.9444   -0.5201    0.4099 H       1  UNL1        0.0795
     32 H          -3.6593    3.0118   -0.1827 H       1  UNL1        0.0654
     33 H          -5.9569    2.7670    0.4806 H       1  UNL1        0.0619
     34 H          -6.8605    0.4773    1.0077 H       1  UNL1        0.0618
     35 H          -5.4128   -1.4661    0.8442 H       1  UNL1        0.0619
     36 H          -3.0403   -1.1721    0.1543 H       1  UNL1        0.0654
@<TRIPOS>BOND
     1     1     2    1
     2     2     3    1
     3     3     4    1
     4     4     5    1
     5     5     6   ar
     6     6     7   ar
     7     7     8   ar
     8     8     9   ar
     9     3    10   am
    10    10    11    2
    11    10    12    1
    12    12    13    1
    13    13    14    1
    14    14    15   ar
    15    15    16   ar
    16    16    17   ar
    17    17    18   ar
    18    18    19   ar
    19     9     5   ar
    20    19    14   ar
    21     1    20    1
    22     1    21    1
    23     1    22    1
    24     2    23    1
    25     2    24    1
    26     4    25    1
    27     4    26    1
    28     6    27    1
    29     7    28    1
    30     8    29    1
    31    12    30    1
    32    12    31    1
    33    15    32    1
    34    16    33    1
    35    17    34    1
    36    18    35    1
    37    19    36    1
@<TRIPOS>MOLECULE
1189571
 53 52 0 0 0
SMALL
GASTEIGER

@<TRIPOS>ATOM
      1 C           6.5934    0.6439    0.2971 C.3     1  UNL1       -0.0653
      2 C           5.3653   -0.2135    0.6006 C.3     1  UNL1       -0.0559
      3 C           4.6200   -0.3920   -0.7023 C.3     1  UNL1       -0.0533
      4 C           3.4105   -1.2380   -0.4637 C.3     1  UNL1       -0.0531
      5 C           2.4660   -0.6150    0.5341 C.3     1  UNL1       -0.0530
      6 C           1.2716   -1.5707    0.6765 C.3     1  UNL1       -0.0527
      7 C           0.2892   -1.0141    1.6550 C.3     1  UNL1       -0.0464
      8 C          -0.2945    0.3153    1.2903 C.3     1  UNL1        0.0014
      9 P          -1.2204    0.2612   -0.3101 P.3     1  UNL1        0.0944
     10 O          -0.0548    0.1569   -1.3520 O.2     1  UNL1       -0.3204
     11 C          -1.9165    1.8589   -0.5430 C.3     1  UNL1        0.0098
     12 C          -2.8570    2.0408   -1.6943 C.3     1  UNL1       -0.0557
     13 C          -2.2977    2.6296    0.7032 C.3     1  UNL1       -0.0466
     14 C          -3.3191    1.9678    1.5762 C.3     1  UNL1       -0.0646
     15 C          -2.1049   -1.2173   -0.4685 C.3     1  UNL1        0.0098
     16 C          -2.0022   -1.7221   -1.9381 C.3     1  UNL1       -0.0557
     17 C          -3.4707   -1.4505   -0.0354 C.3     1  UNL1       -0.0466
     18 C          -4.5641   -0.6327   -0.6577 C.3     1  UNL1       -0.0646
     19 H           7.1549    0.1471   -0.5395 H       1  UNL1        0.0230
     20 H           7.2438    0.6744    1.1832 H       1  UNL1        0.0230
     21 H           6.2119    1.6254   -0.0114 H       1  UNL1        0.0230
     22 H           5.6498   -1.1894    1.0419 H       1  UNL1        0.0263
     23 H           4.7415    0.3975    1.3068 H       1  UNL1        0.0263
     24 H           4.3657    0.6250   -1.0696 H       1  UNL1        0.0265
     25 H           5.2840   -0.8355   -1.4761 H       1  UNL1        0.0265
     26 H           3.7187   -2.2365   -0.0684 H       1  UNL1        0.0265
     27 H           2.9215   -1.4043   -1.4392 H       1  UNL1        0.0265
     28 H           2.9686   -0.5034    1.5320 H       1  UNL1        0.0265
     29 H           2.1721    0.3854    0.2088 H       1  UNL1        0.0265
     30 H           1.6524   -2.5758    0.9774 H       1  UNL1        0.0265
     31 H           0.8633   -1.7121   -0.3379 H       1  UNL1        0.0265
     32 H           0.7360   -0.8850    2.6702 H       1  UNL1        0.0270
     33 H          -0.5176   -1.7905    1.8004 H       1  UNL1        0.0270
     34 H          -1.0087    0.5823    2.0943 H       1  UNL1        0.0342
     35 H           0.5402    1.0452    1.2169 H       1  UNL1        0.0342
     36 H          -1.0072    2.5013   -0.9014 H       1  UNL1        0.0375
     37 H          -2.7049    1.1874   -2.3863 H       1  UNL1        0.0237
     38 H          -3.9268    2.0722   -1.4249 H       1  UNL1        0.0237
     39 H          -2.5783    2.9396   -2.3159 H       1  UNL1        0.0237
     40 H          -2.7270    3.6298    0.4314 H       1  UNL1        0.0269
     41 H          -1.3704    2.9125    1.2896 H       1  UNL1        0.0269
     42 H          -3.2134    2.3007    2.6540 H       1  UNL1        0.0230
     43 H          -3.3051    0.8837    1.6067 H       1  UNL1        0.0230
     44 H          -4.3334    2.3234    1.2971 H       1  UNL1        0.0230
     45 H          -1.4687   -2.0286    0.0526 H       1  UNL1        0.0375
     46 H          -0.9566   -1.6134   -2.2917 H       1  UNL1        0.0237
     47 H          -2.7007   -1.1889   -2.5771 H       1  UNL1        0.0237
     48 H          -2.2035   -2.8266   -1.9085 H       1  UNL1        0.0237
     49 H          -3.6413   -1.4260    1.0691 H       1  UNL1        0.0269
     50 H          -3.7674   -2.5256   -0.2802 H       1  UNL1        0.0269
     51 H          -4.8092    0.2997   -0.1575 H       1  UNL1        0.0230
     52 H          -4.3611   -0.3890   -1.7374 H       1  UNL1        0.0230
     53 H          -5.5372   -1.2104   -0.6772 H       1  UNL1        0.0230
@<TRIPOS>BOND
     1     1     2    1
     2     2     3    1
     3     3     4    1
     4     4     5    1
     5     5     6    1
     6     6     7    1
     7     7     8    1
     8     8     9    1
     9     9    10    2
    10     9    11    1
    11    11    12    1
    12    11    13    1
    13    13    14    1
    14     9    15    1
    15    15    16    1
    16    15    17    1
    17    17    18    1
    18     1    19    1
    19     1    20    1
    20     1    21    1
    21     2    22    1
    22     2    23    1
    23     3    24    1
    24     3    25    1
    25     4    26    1
    26     4    27    1
    27     5    28    1
    28     5    29    1
    29     6    30    1
    30     6    31    1
    31     7    32    1
    32     7    33    1
    33     8    34    1
    34     8    35    1
    35    11    36    1
    36    12    37    1
    37    12    38    1
    38    12    39    1
    39    13    40    1
    40    13    41    1
    41    14    42    1
    42    14    43    1
    43    14    44    1
    44    15    45    1
    45    16    46    1
    46    16    47    1
    47    16    48    1
    48    17    49    1
    49    17    50    1
    50    18    51    1
    51    18    52    1
    52    18    53    1
@<TRIPOS>MOLECULE
884213
 43 44 0 0 0
SMALL
GASTEIGER

@<TRIPOS>ATOM
      1 C           7.4424   -0.2063    0.3872 C.3     1  UNL1        0.0788
      2 O           6.5420   -0.9783    1.1772 O.3     1  UNL1       -0.4951
      3 C           5.1628   -0.8077    1.0005 C.ar    1  UNL1        0.1201
      4 C           4.6911    0.0967    0.0730 C.ar    1  UNL1       -0.0194
      5 C           3.3093    0.2415   -0.0773 C.ar    1  UNL1       -0.0511
      6 C           2.4264   -0.5075    0.6892 C.ar    1  UNL1       -0.0246
      7 C           0.9868   -0.2898    0.4639 C.2     1  UNL1       -0.0497
      8 C           0.0402   -0.9018    1.0918 C.2     1  UNL1        0.0012
      9 C          -1.3592   -0.7219    0.9134 C.2     1  UNL1        0.2439
     10 O          -2.0978   -1.5329    1.6301 O.2     1  UNL1       -0.2703
     11 N          -2.1146    0.1446    0.1251 N.am    1  UNL1       -0.2654
     12 C          -3.3456   -0.3283   -0.4711 C.ar    1  UNL1        0.0368
     13 C          -4.1699    0.5444   -1.1575 C.ar    1  UNL1       -0.0403
     14 C          -5.3416    0.0996   -1.7525 C.ar    1  UNL1       -0.0600
     15 C          -5.7223   -1.2179   -1.6817 C.ar    1  UNL1       -0.0616
     16 C          -4.9139   -2.0861   -1.0073 C.ar    1  UNL1       -0.0600
     17 C          -3.7496   -1.6417   -0.4169 C.ar    1  UNL1       -0.0403
     18 C          -1.6981    1.5213    0.0201 C.3     1  UNL1        0.0258
     19 C          -2.7341    2.4728    0.6135 C.3     1  UNL1       -0.0463
     20 C          -1.4913    1.8762   -1.4217 C.3     1  UNL1       -0.0463
     21 C           2.9203   -1.3918    1.5960 C.ar    1  UNL1       -0.0511
     22 C           4.3043   -1.5593    1.7696 C.ar    1  UNL1       -0.0194
     23 H           8.4726   -0.4504    0.6604 H       1  UNL1        0.0660
     24 H           7.2971   -0.4672   -0.6996 H       1  UNL1        0.0660
     25 H           7.2753    0.8692    0.5054 H       1  UNL1        0.0660
     26 H           5.3766    0.6877   -0.5318 H       1  UNL1        0.0654
     27 H           2.9641    0.9597   -0.8136 H       1  UNL1        0.0625
     28 H           0.7188    0.4200   -0.3287 H       1  UNL1        0.0625
     29 H           0.4051   -1.6385    1.8441 H       1  UNL1        0.0670
     30 H          -3.9241    1.6078   -1.2683 H       1  UNL1        0.0636
     31 H          -5.9950    0.7935   -2.2964 H       1  UNL1        0.0618
     32 H          -6.6255   -1.6041   -2.1301 H       1  UNL1        0.0618
     33 H          -5.1663   -3.1330   -0.9216 H       1  UNL1        0.0618
     34 H          -3.1447   -2.4131    0.0819 H       1  UNL1        0.0636
     35 H          -0.7621    1.6523    0.6145 H       1  UNL1        0.0499
     36 H          -2.8923    3.3229   -0.0554 H       1  UNL1        0.0248
     37 H          -3.6190    1.9801    1.0130 H       1  UNL1        0.0248
     38 H          -2.2328    2.9221    1.5274 H       1  UNL1        0.0248
     39 H          -1.9771    2.8349   -1.7202 H       1  UNL1        0.0248
     40 H          -1.7726    1.0591   -2.1280 H       1  UNL1        0.0248
     41 H          -0.3941    2.0308   -1.6234 H       1  UNL1        0.0248
     42 H           2.2643   -1.9860    2.2042 H       1  UNL1        0.0625
     43 H           4.6439   -2.2735    2.5020 H       1  UNL1        0.0654
@<TRIPOS>BOND
     1     1     2    1
     2     2     3    1
     3     3     4   ar
     4     4     5   ar
     5     5     6   ar
     6     6     7    1
     7     7     8    2
     8     8     9    1
     9     9    10    2
    10     9    11   am
    11    11    12    1
    12    12    13   ar
    13    13    14   ar
    14    14    15   ar
    15    15    16   ar
    16    16    17   ar
    17    11    18    1
    18    18    19    1
    19    18    20    1
    20     6    21   ar
    21    21    22   ar
    22    22     3   ar
    23    17    12   ar
    24     1    23    1
    25     1    24    1
    26     1    25    1
    27     4    26    1
    28     5    27    1
    29     7    28    1
    30     8    29    1
    31    13    30    1
    32    14    31    1
    33    15    32    1
    34    16    33    1
    35    17    34    1
    36    18    35    1
    37    19    36    1
    38    19    37    1
    39    19    38    1
    40    20    39    1
    41    20    40    1
    42    20    41    1
    43    21    42    1
    44    22    43    1
@<TRIPOS>MOLECULE
CHEMBL4084052
 41 43 0 0 0
SMALL
GASTEIGER

@<TRIPOS>ATOM
      1 C           5.0327    2.6282    1.1561 C.3     1  UNL1       -0.0397
      2 C           4.1962    1.5009    0.6446 C.ar    1  UNL1       -0.0502
      3 C           4.8006    0.5288   -0.0868 C.ar    1  UNL1       -0.0554
      4 C           4.0736   -0.5186   -0.5733 C.ar    1  UNL1       -0.0197
      5 C           2.7146   -0.5737   -0.3100 C.ar    1  UNL1        0.1212
      6 O           2.0296   -1.6456   -0.8189 O.3     1  UNL1       -0.4828
      7 C           0.6625   -1.8401   -0.6606 C.3     1  UNL1        0.1657
      8 C          -0.1627   -0.7921   -1.2646 C.2     1  UNL1        0.2588
      9 O           0.3915    0.1548   -1.9225 O.2     1  UNL1       -0.2715
     10 N          -1.5747   -0.8061   -1.1337 N.am    1  UNL1       -0.2472
     11 C          -2.3675    0.2194   -1.7260 C.3     1  UNL1        0.0525
     12 C          -2.5920    1.3575   -0.8447 C.ar    1  UNL1        0.0075
     13 C          -3.5159    1.6934    0.0596 C.ar    1  UNL1       -0.0500
     14 C          -3.4533    2.8420    0.7332 C.ar    1  UNL1       -0.0544
     15 C          -2.3965    3.7190    0.4902 C.ar    1  UNL1       -0.0240
     16 S          -1.5037    2.7269   -0.8025 S.2     1  UNL1       -0.1000
     17 C          -2.1724   -1.8644   -0.4002 C.ar    1  UNL1        0.1461
     18 C          -2.5617   -3.0400   -1.0173 C.ar    1  UNL1        0.0679
     19 N          -3.1300   -4.0515   -0.3317 N.ar    1  UNL1       -0.2583
     20 C          -3.3434   -3.9574    0.9925 C.ar    1  UNL1        0.0458
     21 C          -2.9606   -2.7916    1.6216 C.ar    1  UNL1        0.0478
     22 N          -2.3907   -1.7810    0.9257 N.ar    1  UNL1       -0.2369
     23 C           2.1095    0.4054    0.4264 C.ar    1  UNL1       -0.0197
     24 C           2.8634    1.4651    0.9144 C.ar    1  UNL1       -0.0554
     25 H           5.2224    2.4118    2.2289 H       1  UNL1        0.0278
     26 H           6.0273    2.6361    0.6624 H       1  UNL1        0.0278
     27 H           4.5731    3.6106    0.9873 H       1  UNL1        0.0278
     28 H           5.8509    0.5753   -0.2878 H       1  UNL1        0.0621
     29 H           4.5572   -1.2926   -1.1561 H       1  UNL1        0.0654
     30 H           0.4028   -2.8158   -1.1336 H       1  UNL1        0.0795
     31 H           0.4239   -1.8628    0.4311 H       1  UNL1        0.0795
     32 H          -3.3390   -0.2345   -2.0782 H       1  UNL1        0.0523
     33 H          -1.8710    0.5748   -2.6555 H       1  UNL1        0.0523
     34 H          -4.3711    0.9733    0.2497 H       1  UNL1        0.0626
     35 H          -4.2060    3.1904    1.5168 H       1  UNL1        0.0623
     36 H          -2.0988    4.6391    0.8439 H       1  UNL1        0.0693
     37 H          -2.4001   -3.1331   -2.0692 H       1  UNL1        0.0865
     38 H          -3.8063   -4.7791    1.5557 H       1  UNL1        0.0845
     39 H          -3.1160   -2.6814    2.6793 H       1  UNL1        0.0846
     40 H           1.0444    0.3949    0.6667 H       1  UNL1        0.0654
     41 H           2.3570    2.2136    1.4864 H       1  UNL1        0.0621
@<TRIPOS>BOND
     1     1     2    1
     2     2     3   ar
     3     3     4   ar
     4     4     5   ar
     5     5     6    1
     6     6     7    1
     7     7     8    1
     8     8     9    2
     9     8    10   am
    10    10    11    1
    11    11    12    1
    12    12    13   ar
    13    13    14   ar
    14    14    15   ar
    15    15    16   ar
    16    10    17    1
    17    17    18   ar
    18    18    19   ar
    19    19    20   ar
    20    20    21   ar
    21    21    22   ar
    22     5    23   ar
    23    23    24   ar
    24    24     2   ar
    25    16    12   ar
    26    22    17   ar
    27     1    25    1
    28     1    26    1
    29     1    27    1
    30     3    28    1
    31     4    29    1
    32     7    30    1
    33     7    31    1
    34    11    32    1
    35    11    33    1
    36    13    34    1
    37    14    35    1
    38    15    36    1
    39    18    37    1
    40    20    38    1
    41    21    39    1
    42    23    40    1
    43    24    41    1
@<TRIPOS>MOLECULE
884180
 35 37 0 0 0
SMALL
GASTEIGER

@<TRIPOS>ATOM
      1 C          -1.4911   -4.6430    0.4569 C.3     1  UNL1        0.0790
      2 O          -1.7024   -3.2434    0.6497 O.3     1  UNL1       -0.4902
      3 C          -0.6470   -2.3466    0.3953 C.ar    1  UNL1        0.1777
      4 C           0.5813   -2.7640   -0.0323 C.ar    1  UNL1        0.0751
      5 N           1.5444   -1.8387   -0.2549 N.ar    1  UNL1       -0.2306
      6 C           1.3423   -0.5436   -0.0742 C.ar    1  UNL1        0.1803
      7 C           2.4266    0.4016   -0.3335 C.ar    1  UNL1        0.1079
      8 C           3.6648   -0.0561   -0.7676 C.ar    1  UNL1       -0.0326
      9 C           4.6868    0.8349   -1.0120 C.ar    1  UNL1       -0.0582
     10 C           4.5177    2.1908   -0.8364 C.ar    1  UNL1       -0.0436
     11 C           3.2773    2.6101   -0.4050 C.ar    1  UNL1        0.0284
     12 N           2.2770    1.7288   -0.1667 N.ar    1  UNL1       -0.2518
     13 N           0.1577   -0.1177    0.3403 N.ar    1  UNL1       -0.2075
     14 C          -0.8465   -0.9957    0.5802 C.ar    1  UNL1        0.1648
     15 N          -2.1115   -0.4914    1.0286 N.pl3   1  UNL1       -0.3258
     16 C          -2.3640    0.9012    1.2333 C.3     1  UNL1        0.0134
     17 C          -2.1799    1.6767   -0.0561 C.3     1  UNL1       -0.0255
     18 C          -2.3966    3.1527   -0.0578 C.3     1  UNL1       -0.0485
     19 C          -3.4344    2.3172   -0.6621 C.3     1  UNL1       -0.0485
     20 H          -2.2881   -5.2421    0.9060 H       1  UNL1        0.0660
     21 H          -0.5225   -4.9400    0.9449 H       1  UNL1        0.0660
     22 H          -1.3832   -4.8874   -0.6136 H       1  UNL1        0.0660
     23 H           0.7546   -3.8211   -0.1826 H       1  UNL1        0.0869
     24 H           3.7831   -1.1314   -0.9018 H       1  UNL1        0.0640
     25 H           5.6398    0.4558   -1.3486 H       1  UNL1        0.0619
     26 H           5.2824    2.9328   -1.0125 H       1  UNL1        0.0633
     27 H           3.0962    3.6694   -0.2523 H       1  UNL1        0.0830
     28 H          -2.8681   -1.1842    1.2082 H       1  UNL1        0.1476
     29 H          -1.7289    1.3248    2.0450 H       1  UNL1        0.0464
     30 H          -3.4158    1.0401    1.5519 H       1  UNL1        0.0464
     31 H          -1.4290    1.2679   -0.7557 H       1  UNL1        0.0316
     32 H          -1.6789    3.7414   -0.6763 H       1  UNL1        0.0269
     33 H          -2.6356    3.6570    0.9105 H       1  UNL1        0.0269
     34 H          -4.3798    2.1735   -0.0915 H       1  UNL1        0.0269
     35 H          -3.5288    2.1696   -1.7572 H       1  UNL1        0.0269
@<TRIPOS>BOND
     1     1     2    1
     2     2     3    1
     3     3     4   ar
     4     4     5   ar
     5     5     6   ar
     6     6     7    1
     7     7     8   ar
     8     8     9   ar
     9     9    10   ar
    10    10    11   ar
    11    11    12   ar
    12     6    13   ar
    13    13    14   ar
    14    14    15    1
    15    15    16    1
    16    16    17    1
    17    17    18    1
    18    18    19    1
    19    14     3   ar
    20    19    17    1
    21    12     7   ar
    22     1    20    1
    23     1    21    1
    24     1    22    1
    25     4    23    1
    26     8    24    1
    27     9    25    1
    28    10    26    1
    29    11    27    1
    30    15    28    1
    31    16    29    1
    32    16    30    1
    33    17    31    1
    34    18    32    1
    35    18    33    1
    36    19    34    1
    37    19    35    1
@<TRIPOS>MOLECULE
884201
 46 49 0 0 0
SMALL
GASTEIGER

@<TRIPOS>ATOM
      1 O          -0.3333    1.3877    2.1763 O.2     1  UNL1       -0.2703
      2 C          -0.4240    0.4634    1.3345 C.2     1  UNL1        0.2440
      3 C           0.7748   -0.0878    0.6748 C.2     1  UNL1        0.0012
      4 C           1.9784    0.3603    0.9368 C.2     1  UNL1       -0.0496
      5 C           3.1974   -0.1432    0.3186 C.ar    1  UNL1       -0.0212
      6 C           3.2305   -1.1383   -0.6041 C.ar    1  UNL1       -0.0509
      7 C           4.4281   -1.5890   -1.1709 C.ar    1  UNL1       -0.0156
      8 C           5.6326   -1.0261   -0.8030 C.ar    1  UNL1        0.1663
      9 C           5.6137   -0.0132    0.1343 C.ar    1  UNL1        0.1668
     10 C           4.4233    0.4153    0.6798 C.ar    1  UNL1       -0.0090
     11 O           6.9573    0.3506    0.3010 O.3     1  UNL1       -0.4526
     12 C           7.8007   -0.6321   -0.2561 C.3     1  UNL1        0.2332
     13 O           6.9506   -1.2628   -1.1875 O.3     1  UNL1       -0.4526
     14 N          -1.7201   -0.0328    1.0397 N.am    1  UNL1       -0.2636
     15 C          -2.9154    0.4952    1.6567 C.3     1  UNL1        0.0451
     16 C          -3.5512    1.5910    0.9056 C.ar    1  UNL1       -0.0297
     17 C          -4.4985    1.3892   -0.0768 C.ar    1  UNL1       -0.0571
     18 C          -5.0737    2.4587   -0.7564 C.ar    1  UNL1       -0.0615
     19 C          -4.7183    3.7591   -0.4730 C.ar    1  UNL1       -0.0617
     20 C          -3.7734    3.9667    0.5066 C.ar    1  UNL1       -0.0615
     21 C          -3.2090    2.8905    1.1752 C.ar    1  UNL1       -0.0571
     22 C          -1.9141   -1.1026    0.0919 C.ar    1  UNL1        0.0369
     23 C          -2.1147   -0.8409   -1.2481 C.ar    1  UNL1       -0.0403
     24 C          -2.3038   -1.8368   -2.1851 C.ar    1  UNL1       -0.0600
     25 C          -2.2933   -3.1526   -1.7725 C.ar    1  UNL1       -0.0616
     26 C          -2.0949   -3.4532   -0.4359 C.ar    1  UNL1       -0.0600
     27 C          -1.9081   -2.4269    0.4779 C.ar    1  UNL1       -0.0403
     28 H           0.6654   -0.8809   -0.0435 H       1  UNL1        0.0670
     29 H           2.0461    1.1658    1.6718 H       1  UNL1        0.0625
     30 H           2.3359   -1.6115   -0.9283 H       1  UNL1        0.0625
     31 H           4.4223   -2.3835   -1.9035 H       1  UNL1        0.0655
     32 H           4.4531    1.2174    1.4164 H       1  UNL1        0.0661
     33 H           8.7081   -0.1986   -0.7238 H       1  UNL1        0.1166
     34 H           8.0373   -1.3653    0.5396 H       1  UNL1        0.1166
     35 H          -3.6500   -0.3388    1.8499 H       1  UNL1        0.0518
     36 H          -2.6046    0.8249    2.6909 H       1  UNL1        0.0518
     37 H          -4.7716    0.3574   -0.2923 H       1  UNL1        0.0621
     38 H          -5.8108    2.2968   -1.5204 H       1  UNL1        0.0618
     39 H          -5.1771    4.5988   -1.0141 H       1  UNL1        0.0618
     40 H          -3.4751    4.9750    0.7502 H       1  UNL1        0.0618
     41 H          -2.4572    3.0837    1.9567 H       1  UNL1        0.0621
     42 H          -2.1223    0.2096   -1.5726 H       1  UNL1        0.0636
     43 H          -2.4601   -1.6192   -3.2325 H       1  UNL1        0.0618
     44 H          -2.4408   -3.9718   -2.4916 H       1  UNL1        0.0618
     45 H          -2.0885   -4.5045   -0.1195 H       1  UNL1        0.0618
     46 H          -1.7517   -2.6445    1.5264 H       1  UNL1        0.0636
@<TRIPOS>BOND
     1     1     2    2
     2     2     3    1
     3     3     4    2
     4     4     5    1
     5     5     6   ar
     6     6     7   ar
     7     7     8   ar
     8     8     9   ar
     9     9    10   ar
    10     9    11    1
    11    11    12    1
    12    12    13    1
    13     2    14   am
    14    14    15    1
    15    15    16    1
    16    16    17   ar
    17    17    18   ar
    18    18    19   ar
    19    19    20   ar
    20    20    21   ar
    21    14    22    1
    22    22    23   ar
    23    23    24   ar
    24    24    25   ar
    25    25    26   ar
    26    26    27   ar
    27    10     5   ar
    28    21    16   ar
    29    27    22   ar
    30    13     8    1
    31     3    28    1
    32     4    29    1
    33     6    30    1
    34     7    31    1
    35    10    32    1
    36    12    33    1
    37    12    34    1
    38    15    35    1
    39    15    36    1
    40    17    37    1
    41    18    38    1
    42    19    39    1
    43    20    40    1
    44    21    41    1
    45    23    42    1
    46    24    43    1
    47    25    44    1
    48    26    45    1
    49    27    46    1
@<TRIPOS>MOLECULE
CHEMBL4073694
 59 60 0 0 0
SMALL
GASTEIGER

@<TRIPOS>ATOM
      1 C           6.3320   -1.0222   -2.5461 C.2     1  UNL1       -0.1023
      2 C           5.7364   -1.3967   -1.4323 C.2     1  UNL1       -0.0868
      3 C           5.4483   -0.4221   -0.3447 C.3     1  UNL1       -0.0095
      4 C           3.9637   -0.4087   -0.1355 C.ar    1  UNL1       -0.0365
      5 C           3.3976   -1.2809    0.7738 C.ar    1  UNL1       -0.0126
      6 C           2.0448   -1.2993    0.9933 C.ar    1  UNL1        0.1655
      7 O           1.4997   -2.1729    1.9002 O.3     1  UNL1       -0.4913
      8 C           2.1953   -3.0969    2.6694 C.3     1  UNL1        0.0790
      9 C           1.1858   -0.4380    0.3074 C.ar    1  UNL1        0.2041
     10 O          -0.1660   -0.5143    0.5810 O.3     1  UNL1       -0.4792
     11 C          -0.7855    0.2245    1.6129 C.3     1  UNL1        0.1278
     12 C          -1.1341   -0.6943    2.7748 C.3     1  UNL1       -0.0250
     13 C          -1.9431    1.0568    1.1884 C.3     1  UNL1        0.1201
     14 O          -1.5385    1.9901    0.2495 O.3     1  UNL1       -0.3686
     15 C          -1.6702    3.3096    0.7146 C.3     1  UNL1        0.0458
     16 C          -1.2064    4.2386   -0.3753 C.3     1  UNL1       -0.0415
     17 C          -3.1036    0.2672    0.7200 C.ar    1  UNL1       -0.0117
     18 C          -4.1709    0.0265    1.5606 C.ar    1  UNL1       -0.0523
     19 C          -5.2588   -0.7102    1.1277 C.ar    1  UNL1       -0.0162
     20 C          -5.3264   -1.2315   -0.1472 C.ar    1  UNL1        0.1585
     21 O          -6.4518   -1.9623   -0.5131 O.3     1  UNL1       -0.5033
     22 C          -4.2681   -1.0004   -1.0010 C.ar    1  UNL1        0.1616
     23 O          -4.3046   -1.5028   -2.2695 O.3     1  UNL1       -0.4914
     24 C          -3.3018   -1.3470   -3.2428 C.3     1  UNL1        0.0790
     25 C          -3.1867   -0.2640   -0.5599 C.ar    1  UNL1       -0.0106
     26 C           1.7697    0.4224   -0.5939 C.ar    1  UNL1        0.1655
     27 O           0.9875    1.2990   -1.3077 O.3     1  UNL1       -0.4913
     28 C           1.4930    2.2045   -2.2410 C.3     1  UNL1        0.0790
     29 C           3.1472    0.4476   -0.8234 C.ar    1  UNL1       -0.0126
     30 H           6.6140    0.0152   -2.6651 H       1  UNL1        0.0532
     31 H           6.5492   -1.7117   -3.3450 H       1  UNL1        0.0532
     32 H           5.4582   -2.4446   -1.3267 H       1  UNL1        0.0570
     33 H           5.9446   -0.7676    0.5988 H       1  UNL1        0.0355
     34 H           5.8224    0.5775   -0.6576 H       1  UNL1        0.0355
     35 H           4.0342   -1.9662    1.3267 H       1  UNL1        0.0658
     36 H           3.0590   -2.6977    3.2152 H       1  UNL1        0.0660
     37 H           2.5780   -3.9096    1.9958 H       1  UNL1        0.0660
     38 H           1.4771   -3.5652    3.3833 H       1  UNL1        0.0660
     39 H           0.0040    0.9197    2.0119 H       1  UNL1        0.0760
     40 H          -0.2529   -0.7391    3.4411 H       1  UNL1        0.0266
     41 H          -1.3424   -1.7253    2.4413 H       1  UNL1        0.0266
     42 H          -1.9829   -0.3210    3.3609 H       1  UNL1        0.0266
     43 H          -2.2712    1.6367    2.0869 H       1  UNL1        0.0683
     44 H          -1.1008    3.5112    1.6191 H       1  UNL1        0.0557
     45 H          -2.7727    3.4876    0.8637 H       1  UNL1        0.0557
     46 H          -1.0949    3.6837   -1.3384 H       1  UNL1        0.0252
     47 H          -1.9292    5.0707   -0.5321 H       1  UNL1        0.0252
     48 H          -0.2459    4.6668   -0.0922 H       1  UNL1        0.0252
     49 H          -4.1494    0.4274    2.5834 H       1  UNL1        0.0622
     50 H          -6.0898   -0.8800    1.8289 H       1  UNL1        0.0655
     51 H          -6.9676   -2.4983    0.1850 H       1  UNL1        0.2923
     52 H          -3.3194   -2.1027   -4.0252 H       1  UNL1        0.0660
     53 H          -3.3041   -0.3096   -3.6019 H       1  UNL1        0.0660
     54 H          -2.3216   -1.4843   -2.6968 H       1  UNL1        0.0660
     55 H          -2.3335   -0.0660   -1.2171 H       1  UNL1        0.0659
     56 H           0.6752    2.6840   -2.8048 H       1  UNL1        0.0660
     57 H           2.1417    1.6755   -2.9854 H       1  UNL1        0.0660
     58 H           2.1557    2.9751   -1.7552 H       1  UNL1        0.0660
     59 H           3.5809    1.1356   -1.5390 H       1  UNL1        0.0658
@<TRIPOS>BOND
     1     1     2    2
     2     2     3    1
     3     3     4    1
     4     4     5   ar
     5     5     6   ar
     6     6     7    1
     7     7     8    1
     8     6     9   ar
     9     9    10    1
    10    10    11    1
    11    11    12    1
    12    11    13    1
    13    13    14    1
    14    14    15    1
    15    15    16    1
    16    13    17    1
    17    17    18   ar
    18    18    19   ar
    19    19    20   ar
    20    20    21    1
    21    20    22   ar
    22    22    23    1
    23    23    24    1
    24    22    25   ar
    25     9    26   ar
    26    26    27    1
    27    27    28    1
    28    26    29   ar
    29    29     4   ar
    30    25    17   ar
    31     1    30    1
    32     1    31    1
    33     2    32    1
    34     3    33    1
    35     3    34    1
    36     5    35    1
    37     8    36    1
    38     8    37    1
    39     8    38    1
    40    11    39    1
    41    12    40    1
    42    12    41    1
    43    12    42    1
    44    13    43    1
    45    15    44    1
    46    15    45    1
    47    16    46    1
    48    16    47    1
    49    16    48    1
    50    18    49    1
    51    19    50    1
    52    21    51    1
    53    24    52    1
    54    24    53    1
    55    24    54    1
    56    25    55    1
    57    28    56    1
    58    28    57    1
    59    28    58    1
    60    29    59    1
@<TRIPOS>MOLECULE
CHEMBL4084423
 59 60 0 0 0
SMALL
GASTEIGER

@<TRIPOS>ATOM
      1 C           7.0045    1.1861   -0.3421 C.2     1  UNL1       -0.1023
      2 C           6.2785    0.1699    0.0477 C.2     1  UNL1       -0.0868
      3 C           5.5714    0.1262    1.3685 C.3     1  UNL1       -0.0095
      4 C           4.1071   -0.0198    1.1773 C.ar    1  UNL1       -0.0365
      5 C           3.5304   -1.2714    1.1117 C.ar    1  UNL1       -0.0126
      6 C           2.1694   -1.4426    0.9341 C.ar    1  UNL1        0.1655
      7 O           1.6108   -2.7093    0.8719 O.3     1  UNL1       -0.4913
      8 C           2.4576   -3.8380    0.9935 C.3     1  UNL1        0.0790
      9 C           1.3239   -0.3311    0.8136 C.ar    1  UNL1        0.2041
     10 O          -0.0414   -0.4990    0.6351 O.3     1  UNL1       -0.4792
     11 C          -0.5559   -0.6043   -0.6477 C.3     1  UNL1        0.1278
     12 C          -0.9563   -2.0703   -0.8246 C.3     1  UNL1       -0.0250
     13 C          -1.7044    0.3104   -0.9781 C.3     1  UNL1        0.1201
     14 O          -1.3962    1.6406   -0.8747 O.3     1  UNL1       -0.3686
     15 C          -1.4897    2.3608   -2.0416 C.3     1  UNL1        0.0458
     16 C          -1.1138    3.7947   -1.7270 C.3     1  UNL1       -0.0415
     17 C          -2.9222    0.0011   -0.1809 C.ar    1  UNL1       -0.0117
     18 C          -2.9731    0.4930    1.1054 C.ar    1  UNL1       -0.0523
     19 C          -4.0930    0.2220    1.8602 C.ar    1  UNL1       -0.0162
     20 C          -5.1380   -0.5199    1.3503 C.ar    1  UNL1        0.1585
     21 O          -6.2750   -0.7903    2.1288 O.3     1  UNL1       -0.5033
     22 C          -5.0633   -1.0041    0.0527 C.ar    1  UNL1        0.1616
     23 O          -6.1463   -1.7451   -0.4064 O.3     1  UNL1       -0.4914
     24 C          -6.1885   -2.2932   -1.7132 C.3     1  UNL1        0.0790
     25 C          -3.9482   -0.7413   -0.7167 C.ar    1  UNL1       -0.0106
     26 C           1.9311    0.9174    0.8835 C.ar    1  UNL1        0.1655
     27 O           1.1426    2.0485    0.7717 O.3     1  UNL1       -0.4913
     28 C           1.7247    3.3342    0.8389 C.3     1  UNL1        0.0790
     29 C           3.2966    1.0824    1.0618 C.ar    1  UNL1       -0.0126
     30 H           7.1217    2.0528    0.2941 H       1  UNL1        0.0532
     31 H           7.4900    1.1649   -1.2996 H       1  UNL1        0.0532
     32 H           6.1538   -0.7087   -0.5858 H       1  UNL1        0.0570
     33 H           5.9819   -0.7794    1.8915 H       1  UNL1        0.0355
     34 H           5.8387    1.0475    1.9198 H       1  UNL1        0.0355
     35 H           4.1532   -2.1599    1.2009 H       1  UNL1        0.0658
     36 H           3.0122   -3.7676    1.9569 H       1  UNL1        0.0660
     37 H           3.2464   -3.7464    0.1907 H       1  UNL1        0.0660
     38 H           1.9398   -4.7827    0.8424 H       1  UNL1        0.0660
     39 H           0.2384   -0.4274   -1.4079 H       1  UNL1        0.0760
     40 H          -0.0894   -2.6070   -1.2591 H       1  UNL1        0.0266
     41 H          -1.8018   -2.2063   -1.4976 H       1  UNL1        0.0266
     42 H          -1.1262   -2.5585    0.1786 H       1  UNL1        0.0266
     43 H          -1.9714    0.1123   -2.0349 H       1  UNL1        0.0683
     44 H          -2.4681    2.3629   -2.5120 H       1  UNL1        0.0557
     45 H          -0.7585    2.0210   -2.8234 H       1  UNL1        0.0557
     46 H          -1.6753    4.4656   -2.4073 H       1  UNL1        0.0252
     47 H          -0.0301    3.9771   -1.8679 H       1  UNL1        0.0252
     48 H          -1.4603    4.0228   -0.6945 H       1  UNL1        0.0252
     49 H          -2.1432    1.0892    1.5278 H       1  UNL1        0.0622
     50 H          -4.1507    0.6008    2.8740 H       1  UNL1        0.0655
     51 H          -6.5191   -1.7828    2.1791 H       1  UNL1        0.2923
     52 H          -7.1640   -2.8093   -1.8277 H       1  UNL1        0.0660
     53 H          -6.1124   -1.4421   -2.4469 H       1  UNL1        0.0660
     54 H          -5.3496   -2.9844   -1.8999 H       1  UNL1        0.0660
     55 H          -3.9095   -1.1325   -1.7480 H       1  UNL1        0.0659
     56 H           0.9595    4.1157    0.6789 H       1  UNL1        0.0660
     57 H           2.5433    3.4396    0.0874 H       1  UNL1        0.0660
     58 H           2.2048    3.5204    1.8288 H       1  UNL1        0.0660
     59 H           3.7031    2.0947    1.1070 H       1  UNL1        0.0658
@<TRIPOS>BOND
     1     1     2    2
     2     2     3    1
     3     3     4    1
     4     4     5   ar
     5     5     6   ar
     6     6     7    1
     7     7     8    1
     8     6     9   ar
     9     9    10    1
    10    10    11    1
    11    11    12    1
    12    11    13    1
    13    13    14    1
    14    14    15    1
    15    15    16    1
    16    13    17    1
    17    17    18   ar
    18    18    19   ar
    19    19    20   ar
    20    20    21    1
    21    20    22   ar
    22    22    23    1
    23    23    24    1
    24    22    25   ar
    25     9    26   ar
    26    26    27    1
    27    27    28    1
    28    26    29   ar
    29    29     4   ar
    30    25    17   ar
    31     1    30    1
    32     1    31    1
    33     2    32    1
    34     3    33    1
    35     3    34    1
    36     5    35    1
    37     8    36    1
    38     8    37    1
    39     8    38    1
    40    11    39    1
    41    12    40    1
    42    12    41    1
    43    12    42    1
    44    13    43    1
    45    15    44    1
    46    15    45    1
    47    16    46    1
    48    16    47    1
    49    16    48    1
    50    18    49    1
    51    19    50    1
    52    21    51    1
    53    24    52    1
    54    24    53    1
    55    24    54    1
    56    25    55    1
    57    28    56    1
    58    28    57    1
    59    28    58    1
    60    29    59    1
@<TRIPOS>MOLECULE
CHEMBL4104665
 38 39 0 0 0
SMALL
GASTEIGER

@<TRIPOS>ATOM
      1 C          -4.2229   -0.6259   -1.7620 C.3     1  UNL1       -0.0493
      2 C          -3.1358   -1.6258   -2.0354 C.3     1  UNL1        0.0123
      3 N          -1.8844   -1.1752   -1.3832 N.am    1  UNL1       -0.2941
      4 C          -1.7344   -1.6222   -0.0316 C.3     1  UNL1        0.0475
      5 C          -2.3774   -0.7057    0.9303 C.ar    1  UNL1        0.0265
      6 C          -3.5923   -0.5819    1.4749 C.ar    1  UNL1        0.0394
      7 N          -3.7896    0.3929    2.3280 N.ar    1  UNL1       -0.2554
      8 C          -3.0776    1.1814    2.6986 C.ar    1  UNL1        0.0650
      9 S          -1.5123    0.7058    1.7438 S.2     1  UNL1       -0.0788
     10 C          -1.0162   -0.3540   -2.1132 C.2     1  UNL1        0.2535
     11 O          -1.3649    0.0120   -3.3080 O.2     1  UNL1       -0.2719
     12 C           0.2893    0.1599   -1.6742 C.3     1  UNL1        0.1654
     13 O           0.7304   -0.2778   -0.4193 O.3     1  UNL1       -0.4828
     14 C           1.9405    0.1549    0.0669 C.ar    1  UNL1        0.1212
     15 C           2.3852   -0.2676    1.2979 C.ar    1  UNL1       -0.0197
     16 C           3.6048    0.1737    1.7784 C.ar    1  UNL1       -0.0554
     17 C           4.4205    1.0360    1.0729 C.ar    1  UNL1       -0.0502
     18 C           5.7317    1.4928    1.6214 C.3     1  UNL1       -0.0397
     19 C           3.9577    1.4509   -0.1634 C.ar    1  UNL1       -0.0554
     20 C           2.7354    1.0145   -0.6554 C.ar    1  UNL1       -0.0197
     21 H          -4.9983   -1.0675   -1.1025 H       1  UNL1        0.0245
     22 H          -4.6971   -0.2799   -2.7092 H       1  UNL1        0.0245
     23 H          -3.8008    0.2773   -1.2857 H       1  UNL1        0.0245
     24 H          -2.9369   -1.6418   -3.1144 H       1  UNL1        0.0462
     25 H          -3.3920   -2.6481   -1.6849 H       1  UNL1        0.0462
     26 H          -0.6951   -1.8866    0.2629 H       1  UNL1        0.0519
     27 H          -2.2885   -2.5932    0.1001 H       1  UNL1        0.0519
     28 H          -4.4166   -1.2848    1.2143 H       1  UNL1        0.0838
     29 H          -2.9625    2.0650    3.3642 H       1  UNL1        0.0907
     30 H           1.0902   -0.0299   -2.4484 H       1  UNL1        0.0795
     31 H           0.2810    1.2883   -1.6099 H       1  UNL1        0.0795
     32 H           1.7630   -0.9491    1.8791 H       1  UNL1        0.0654
     33 H           3.9643   -0.1558    2.7519 H       1  UNL1        0.0621
     34 H           6.4673    0.6648    1.5951 H       1  UNL1        0.0278
     35 H           5.5294    1.8445    2.6565 H       1  UNL1        0.0278
     36 H           6.0419    2.3778    1.0373 H       1  UNL1        0.0278
     37 H           4.5608    2.1253   -0.7518 H       1  UNL1        0.0621
     38 H           2.4021    1.3552   -1.6219 H       1  UNL1        0.0654
@<TRIPOS>BOND
     1     1     2    1
     2     2     3    1
     3     3     4    1
     4     4     5    1
     5     5     6   ar
     6     6     7   ar
     7     7     8   ar
     8     8     9   ar
     9     3    10   am
    10    10    11    2
    11    10    12    1
    12    12    13    1
    13    13    14    1
    14    14    15   ar
    15    15    16   ar
    16    16    17   ar
    17    17    18    1
    18    17    19   ar
    19    19    20   ar
    20     9     5   ar
    21    20    14   ar
    22     1    21    1
    23     1    22    1
    24     1    23    1
    25     2    24    1
    26     2    25    1
    27     4    26    1
    28     4    27    1
    29     6    28    1
    30     8    29    1
    31    12    30    1
    32    12    31    1
    33    15    32    1
    34    16    33    1
    35    18    34    1
    36    18    35    1
    37    18    36    1
    38    19    37    1
    39    20    38    1
@<TRIPOS>MOLECULE
1189570
 50 49 0 0 0
SMALL
GASTEIGER

@<TRIPOS>ATOM
      1 C           6.3775    0.2378   -1.0207 C.3     1  UNL1       -0.0653
      2 C           4.8652    0.3131   -0.7254 C.3     1  UNL1       -0.0559
      3 C           4.6012   -0.7731    0.2761 C.3     1  UNL1       -0.0533
      4 C           3.1604   -0.8325    0.6922 C.3     1  UNL1       -0.0531
      5 C           2.2914   -1.1064   -0.4787 C.3     1  UNL1       -0.0527
      6 C           0.8214   -1.1969   -0.1273 C.3     1  UNL1       -0.0464
      7 C           0.3002    0.0731    0.4832 C.3     1  UNL1        0.0014
      8 P          -1.4248    0.0190    0.9150 P.3     1  UNL1        0.0944
      9 O          -1.5510   -0.6812    2.2711 O.2     1  UNL1       -0.3204
     10 C          -1.9893    1.7341    1.1920 C.3     1  UNL1        0.0098
     11 C          -2.9568    1.8048    2.3453 C.3     1  UNL1       -0.0557
     12 C          -2.6896    2.2625   -0.0474 C.3     1  UNL1       -0.0466
     13 C          -3.1219    3.6833    0.2710 C.3     1  UNL1       -0.0646
     14 C          -2.4674   -0.8316   -0.2560 C.3     1  UNL1        0.0098
     15 C          -2.1456   -0.5404   -1.6924 C.3     1  UNL1       -0.0557
     16 C          -2.5076   -2.3432    0.0081 C.3     1  UNL1       -0.0466
     17 C          -3.3992   -3.0332   -1.0011 C.3     1  UNL1       -0.0646
     18 H           6.8708    0.3339   -0.0342 H       1  UNL1        0.0230
     19 H           6.6239   -0.7159   -1.5211 H       1  UNL1        0.0230
     20 H           6.6753    1.0875   -1.6388 H       1  UNL1        0.0230
     21 H           4.2927    0.2599   -1.6487 H       1  UNL1        0.0263
     22 H           4.7044    1.3018   -0.2581 H       1  UNL1        0.0263
     23 H           4.9346   -1.7622   -0.1367 H       1  UNL1        0.0265
     24 H           5.2220   -0.5056    1.1778 H       1  UNL1        0.0265
     25 H           2.9400    0.1755    1.1564 H       1  UNL1        0.0265
     26 H           3.0882   -1.6332    1.4613 H       1  UNL1        0.0265
     27 H           2.6089   -2.0649   -0.9335 H       1  UNL1        0.0265
     28 H           2.4532   -0.3182   -1.2521 H       1  UNL1        0.0265
     29 H           0.6786   -2.0351    0.5503 H       1  UNL1        0.0270
     30 H           0.2820   -1.3988   -1.0762 H       1  UNL1        0.0270
     31 H           0.8912    0.2892    1.4174 H       1  UNL1        0.0342
     32 H           0.5021    0.9277   -0.1893 H       1  UNL1        0.0342
     33 H          -1.1200    2.3980    1.3736 H       1  UNL1        0.0375
     34 H          -2.7549    0.9354    3.0071 H       1  UNL1        0.0237
     35 H          -2.7653    2.7608    2.8777 H       1  UNL1        0.0237
     36 H          -3.9914    1.8079    1.9636 H       1  UNL1        0.0237
     37 H          -3.5874    1.6754   -0.2630 H       1  UNL1        0.0269
     38 H          -1.9782    2.3378   -0.8965 H       1  UNL1        0.0269
     39 H          -3.7440    4.1091   -0.5552 H       1  UNL1        0.0230
     40 H          -2.2437    4.3530    0.3856 H       1  UNL1        0.0230
     41 H          -3.6967    3.7169    1.2071 H       1  UNL1        0.0230
     42 H          -3.5278   -0.4887   -0.0824 H       1  UNL1        0.0375
     43 H          -3.0379   -0.1662   -2.2636 H       1  UNL1        0.0237
     44 H          -1.3484    0.2079   -1.8065 H       1  UNL1        0.0237
     45 H          -1.8516   -1.4925   -2.1860 H       1  UNL1        0.0237
     46 H          -2.9497   -2.4719    1.0134 H       1  UNL1        0.0269
     47 H          -1.5084   -2.7975   -0.0794 H       1  UNL1        0.0269
     48 H          -4.2084   -2.3395   -1.3155 H       1  UNL1        0.0230
     49 H          -3.7817   -3.9892   -0.6143 H       1  UNL1        0.0230
     50 H          -2.8366   -3.2876   -1.9450 H       1  UNL1        0.0230
@<TRIPOS>BOND
     1     1     2    1
     2     2     3    1
     3     3     4    1
     4     4     5    1
     5     5     6    1
     6     6     7    1
     7     7     8    1
     8     8     9    2
     9     8    10    1
    10    10    11    1
    11    10    12    1
    12    12    13    1
    13     8    14    1
    14    14    15    1
    15    14    16    1
    16    16    17    1
    17     1    18    1
    18     1    19    1
    19     1    20    1
    20     2    21    1
    21     2    22    1
    22     3    23    1
    23     3    24    1
    24     4    25    1
    25     4    26    1
    26     5    27    1
    27     5    28    1
    28     6    29    1
    29     6    30    1
    30     7    31    1
    31     7    32    1
    32    10    33    1
    33    11    34    1
    34    11    35    1
    35    11    36    1
    36    12    37    1
    37    12    38    1
    38    13    39    1
    39    13    40    1
    40    13    41    1
    41    14    42    1
    42    15    43    1
    43    15    44    1
    44    15    45    1
    45    16    46    1
    46    16    47    1
    47    17    48    1
    48    17    49    1
    49    17    50    1
@<TRIPOS>MOLECULE
884198
 42 44 0 0 0
SMALL
GASTEIGER

@<TRIPOS>ATOM
      1 C          -4.6238   -3.2212   -1.6390 C.3     1  UNL1       -0.0638
      2 C          -3.4832   -2.5824   -0.9150 C.3     1  UNL1       -0.0396
      3 C          -3.0812   -1.3093   -1.6234 C.3     1  UNL1        0.0198
      4 N          -1.9836   -0.6430   -0.9741 N.am    1  UNL1       -0.2679
      5 C          -0.6491   -0.9412   -1.3359 C.2     1  UNL1        0.2437
      6 O          -0.4609   -1.8002   -2.2356 O.2     1  UNL1       -0.2703
      7 C           0.4938   -0.2866   -0.7004 C.2     1  UNL1        0.0012
      8 C           1.7020   -0.6059   -1.0792 C.2     1  UNL1       -0.0496
      9 C           2.9054   -0.0126   -0.5098 C.ar    1  UNL1       -0.0212
     10 C           4.1502   -0.4212   -0.9828 C.ar    1  UNL1       -0.0509
     11 C           5.3009    0.1231   -0.4623 C.ar    1  UNL1       -0.0156
     12 C           5.2810    1.0780    0.5307 C.ar    1  UNL1        0.1663
     13 C           4.0648    1.4915    1.0077 C.ar    1  UNL1        0.1668
     14 C           2.8898    0.9403    0.4809 C.ar    1  UNL1       -0.0090
     15 O           4.3291    2.4418    1.9848 O.3     1  UNL1       -0.4526
     16 C           5.6662    2.2179    2.4209 C.3     1  UNL1        0.2332
     17 O           6.2789    1.7664    1.2069 O.3     1  UNL1       -0.4526
     18 C          -2.2069    0.3227    0.0379 C.ar    1  UNL1        0.0365
     19 C          -2.2951    0.0062    1.3811 C.ar    1  UNL1       -0.0403
     20 C          -2.5156    0.9778    2.3562 C.ar    1  UNL1       -0.0600
     21 C          -2.6522    2.2988    1.9868 C.ar    1  UNL1       -0.0616
     22 C          -2.5680    2.6349    0.6578 C.ar    1  UNL1       -0.0600
     23 C          -2.3515    1.6700   -0.2846 C.ar    1  UNL1       -0.0403
     24 H          -5.3963   -3.5990   -0.9343 H       1  UNL1        0.0230
     25 H          -5.0517   -2.5067   -2.3672 H       1  UNL1        0.0230
     26 H          -4.2400   -4.0813   -2.2336 H       1  UNL1        0.0230
     27 H          -2.6319   -3.2921   -0.8604 H       1  UNL1        0.0278
     28 H          -3.8261   -2.3414    0.1195 H       1  UNL1        0.0278
     29 H          -2.8728   -1.5806   -2.6752 H       1  UNL1        0.0469
     30 H          -3.9989   -0.6598   -1.6631 H       1  UNL1        0.0469
     31 H           0.3233    0.4353    0.0562 H       1  UNL1        0.0670
     32 H           1.8353   -1.3635   -1.8714 H       1  UNL1        0.0625
     33 H           4.2186   -1.1593   -1.7524 H       1  UNL1        0.0625
     34 H           6.2492   -0.2216   -0.8575 H       1  UNL1        0.0655
     35 H           1.9481    1.2836    0.8744 H       1  UNL1        0.0661
     36 H           6.0957    3.1483    2.7906 H       1  UNL1        0.1166
     37 H           5.7179    1.4128    3.1790 H       1  UNL1        0.1166
     38 H          -2.1902   -1.0178    1.6781 H       1  UNL1        0.0636
     39 H          -2.5852    0.7349    3.4070 H       1  UNL1        0.0618
     40 H          -2.8258    3.0709    2.7451 H       1  UNL1        0.0618
     41 H          -2.6762    3.6690    0.3823 H       1  UNL1        0.0618
     42 H          -2.2840    1.9224   -1.3267 H       1  UNL1        0.0636
@<TRIPOS>BOND
     1     1     2    1
     2     2     3    1
     3     3     4    1
     4     4     5   am
     5     5     6    2
     6     5     7    1
     7     7     8    2
     8     8     9    1
     9     9    10   ar
    10    10    11   ar
    11    11    12   ar
    12    12    13   ar
    13    13    14   ar
    14    13    15    1
    15    15    16    1
    16    16    17    1
    17     4    18    1
    18    18    19   ar
    19    19    20   ar
    20    20    21   ar
    21    21    22   ar
    22    22    23   ar
    23    14     9   ar
    24    23    18   ar
    25    17    12    1
    26     1    24    1
    27     1    25    1
    28     1    26    1
    29     2    27    1
    30     2    28    1
    31     3    29    1
    32     3    30    1
    33     7    31    1
    34     8    32    1
    35    10    33    1
    36    11    34    1
    37    14    35    1
    38    16    36    1
    39    16    37    1
    40    19    38    1
    41    20    39    1
    42    21    40    1
    43    22    41    1
    44    23    42    1
@<TRIPOS>MOLECULE
884211
 44 46 0 0 0
SMALL
GASTEIGER

@<TRIPOS>ATOM
      1 C           7.5291    0.4230   -0.0620 C.3     1  UNL1        0.0788
      2 O           6.5155    1.3485    0.3031 O.3     1  UNL1       -0.4951
      3 C           5.1935    0.9550    0.1948 C.ar    1  UNL1        0.1201
      4 C           4.7962   -0.2813   -0.2461 C.ar    1  UNL1       -0.0194
      5 C           3.4430   -0.6376   -0.3400 C.ar    1  UNL1       -0.0511
      6 C           2.4620    0.2381    0.0060 C.ar    1  UNL1       -0.0246
      7 C           1.0270   -0.0141   -0.0477 C.2     1  UNL1       -0.0497
      8 C           0.5223   -1.1464   -0.4478 C.2     1  UNL1        0.0016
      9 C          -0.8679   -1.5427   -0.5555 C.2     1  UNL1        0.2480
     10 O          -1.0883   -2.7543   -0.9909 O.2     1  UNL1       -0.2699
     11 N          -1.9655   -0.7580   -0.2409 N.am    1  UNL1       -0.2368
     12 C          -2.0435    0.5590    0.2380 C.ar    1  UNL1        0.0416
     13 C          -2.1228    1.6823   -0.5933 C.ar    1  UNL1       -0.0399
     14 C          -2.2284    2.9512   -0.0642 C.ar    1  UNL1       -0.0600
     15 C          -2.2607    3.1708    1.2907 C.ar    1  UNL1       -0.0616
     16 C          -2.1833    2.0711    2.1180 C.ar    1  UNL1       -0.0600
     17 C          -2.0772    0.7939    1.6109 C.ar    1  UNL1       -0.0399
     18 C          -3.2651   -1.4412   -0.4519 C.ar    1  UNL1        0.0416
     19 C          -3.8950   -1.3501   -1.6704 C.ar    1  UNL1       -0.0399
     20 C          -5.1042   -1.9761   -1.8921 C.ar    1  UNL1       -0.0600
     21 C          -5.6608   -2.6981   -0.8473 C.ar    1  UNL1       -0.0616
     22 C          -5.0193   -2.7834    0.3737 C.ar    1  UNL1       -0.0600
     23 C          -3.8074   -2.1537    0.5898 C.ar    1  UNL1       -0.0399
     24 C           2.8906    1.4955    0.4538 C.ar    1  UNL1       -0.0511
     25 C           4.2143    1.8562    0.5501 C.ar    1  UNL1       -0.0194
     26 H           7.5264   -0.3841    0.7173 H       1  UNL1        0.0660
     27 H           7.3854   -0.0001   -1.0652 H       1  UNL1        0.0660
     28 H           8.5202    0.9314   -0.0616 H       1  UNL1        0.0660
     29 H           5.5278   -1.0166   -0.5342 H       1  UNL1        0.0654
     30 H           3.1715   -1.6211   -0.6919 H       1  UNL1        0.0625
     31 H           0.3524    0.7765    0.2599 H       1  UNL1        0.0625
     32 H           1.3086   -1.8896   -0.7402 H       1  UNL1        0.0670
     33 H          -2.0986    1.5254   -1.6693 H       1  UNL1        0.0636
     34 H          -2.2890    3.8127   -0.7241 H       1  UNL1        0.0618
     35 H          -2.3424    4.1505    1.7390 H       1  UNL1        0.0618
     36 H          -2.2028    2.1672    3.1935 H       1  UNL1        0.0618
     37 H          -2.0156   -0.0806    2.2591 H       1  UNL1        0.0636
     38 H          -3.4256   -0.7725   -2.4687 H       1  UNL1        0.0636
     39 H          -5.6101   -1.9051   -2.8650 H       1  UNL1        0.0618
     40 H          -6.6186   -3.2005   -1.0057 H       1  UNL1        0.0618
     41 H          -5.4567   -3.3485    1.1887 H       1  UNL1        0.0618
     42 H          -3.2904   -2.2127    1.5484 H       1  UNL1        0.0636
     43 H           2.1241    2.2066    0.7340 H       1  UNL1        0.0625
     44 H           4.4296    2.8531    0.9084 H       1  UNL1        0.0654
@<TRIPOS>BOND
     1     1     2    1
     2     2     3    1
     3     3     4   ar
     4     4     5   ar
     5     5     6   ar
     6     6     7    1
     7     7     8    2
     8     8     9    1
     9     9    10    2
    10     9    11   am
    11    11    12    1
    12    12    13   ar
    13    13    14   ar
    14    14    15   ar
    15    15    16   ar
    16    16    17   ar
    17    11    18    1
    18    18    19   ar
    19    19    20   ar
    20    20    21   ar
    21    21    22   ar
    22    22    23   ar
    23     6    24   ar
    24    24    25   ar
    25    25     3   ar
    26    17    12   ar
    27    23    18   ar
    28     1    26    1
    29     1    27    1
    30     1    28    1
    31     4    29    1
    32     5    30    1
    33     7    31    1
    34     8    32    1
    35    13    33    1
    36    14    34    1
    37    15    35    1
    38    16    36    1
    39    17    37    1
    40    19    38    1
    41    20    39    1
    42    21    40    1
    43    22    41    1
    44    23    42    1
    45    24    43    1
    46    25    44    1
@<TRIPOS>MOLECULE
50333244
 36 38 0 0 0
SMALL
GASTEIGER

@<TRIPOS>ATOM
      1 O           1.7235    0.6190   -2.2934 O.2     1  UNL1       -0.2519
      2 C           0.9900    0.3876   -1.2773 C.2     1  UNL1        0.3110
      3 N          -0.4299    0.3574   -1.3927 N.am    1  UNL1       -0.2687
      4 C          -1.2096    0.0964   -0.2378 C.2     1  UNL1        0.0397
      5 C          -2.6614    0.0672   -0.3641 C.ar    1  UNL1        0.0024
      6 C          -3.2564    0.2929   -1.6007 C.ar    1  UNL1       -0.0524
      7 C          -4.6462    0.2730   -1.7615 C.ar    1  UNL1       -0.0547
      8 C          -5.4734    0.0295   -0.7027 C.ar    1  UNL1        0.0156
      9 C          -4.9207   -0.2002    0.5462 C.ar    1  UNL1        0.2738
     10 N          -5.7208   -0.4583    1.6836 N.pl3   1  UNL1        0.0796
     11 O          -6.9454   -0.4820    1.5725 O.2     1  UNL1        0.0414
     12 O          -5.1358   -0.6774    2.8854 O.co2   1  UNL1       -0.5760
     13 C          -3.5357   -0.1728    0.6689 C.ar    1  UNL1        0.0245
     14 C          -0.5898   -0.1095    0.9043 C.2     1  UNL1       -0.0445
     15 C           0.8660   -0.1025    1.1419 C.3     1  UNL1        0.0414
     16 N           1.6024    0.1630   -0.0433 N.am    1  UNL1       -0.2513
     17 C           3.0385    0.1958    0.0628 C.ar    1  UNL1        0.0415
     18 C           3.6563    1.3795    0.3462 C.ar    1  UNL1       -0.0400
     19 C           5.0365    1.4489    0.4559 C.ar    1  UNL1       -0.0566
     20 C           5.7797    0.3018    0.2742 C.ar    1  UNL1       -0.0201
     21 C           5.1723   -0.9000   -0.0121 C.ar    1  UNL1        0.1186
     22 O           5.9388   -2.0668   -0.1962 O.3     1  UNL1       -0.5067
     23 C           3.7949   -0.9434   -0.1163 C.ar    1  UNL1        0.0013
     24 H          -0.8124    0.5347   -2.3480 H       1  UNL1        0.1564
     25 H          -2.7097    0.4954   -2.5080 H       1  UNL1        0.0624
     26 H          -5.0990    0.4515   -2.7365 H       1  UNL1        0.0620
     27 H          -6.5505    0.0012   -0.7632 H       1  UNL1        0.0685
     28 H          -3.1489   -0.3562    1.6556 H       1  UNL1        0.0692
     29 H          -1.2671   -0.3073    1.7633 H       1  UNL1        0.0606
     30 H           1.0533    0.6438    1.9523 H       1  UNL1        0.0513
     31 H           1.1760   -1.1321    1.5095 H       1  UNL1        0.0513
     32 H           3.1037    2.3018    0.4954 H       1  UNL1        0.0636
     33 H           5.5691    2.3586    0.6777 H       1  UNL1        0.0619
     34 H           6.8608    0.3544    0.3598 H       1  UNL1        0.0654
     35 H           5.4477   -2.9495   -0.2585 H       1  UNL1        0.2921
     36 H           3.3029   -1.8954   -0.3439 H       1  UNL1        0.0673
@<TRIPOS>UNITY_ATOM_ATTR
10 1
charge 1
12 1
charge -1
@<TRIPOS>BOND
     1     1     2    2
     2     2     3   am
     3     3     4    1
     4     4     5    1
     5     5     6   ar
     6     6     7   ar
     7     7     8   ar
     8     8     9   ar
     9     9    10    1
    10    10    11    2
    11    10    12    1
    12     9    13   ar
    13     4    14    2
    14    14    15    1
    15    15    16    1
    16    16    17    1
    17    17    18   ar
    18    18    19   ar
    19    19    20   ar
    20    20    21   ar
    21    21    22    1
    22    21    23   ar
    23    16     2   am
    24    23    17   ar
    25    13     5   ar
    26     3    24    1
    27     6    25    1
    28     7    26    1
    29     8    27    1
    30    13    28    1
    31    14    29    1
    32    15    30    1
    33    15    31    1
    34    18    32    1
    35    19    33    1
    36    20    34    1
    37    22    35    1
    38    23    36    1
@<TRIPOS>MOLECULE
51028033
 43 44 0 0 0
SMALL
GASTEIGER

@<TRIPOS>ATOM
      1 C           7.6529   -0.0530   -0.0354 C.3     1  UNL1        0.0788
      2 O           6.5989   -0.5547    0.7425 O.3     1  UNL1       -0.4951
      3 C           5.2861   -0.4057    0.3215 C.ar    1  UNL1        0.1202
      4 C           5.0199    0.2464   -0.8809 C.ar    1  UNL1       -0.0182
      5 C           3.7097    0.3766   -1.2679 C.ar    1  UNL1       -0.0369
      6 C           2.6271   -0.1005   -0.5375 C.ar    1  UNL1        0.0367
      7 N           1.3406    0.1090   -1.0641 N.am    1  UNL1       -0.2508
      8 C           0.1504   -0.3183   -0.4357 C.2     1  UNL1        0.4099
      9 O           0.1040   -0.9213    0.6420 O.2     1  UNL1       -0.2257
     10 O          -1.0552   -0.0398   -1.0771 O.3     1  UNL1       -0.4110
     11 C          -2.2888   -0.3986   -0.5769 C.ar    1  UNL1        0.1369
     12 C          -2.8701   -1.5995   -0.8778 C.ar    1  UNL1       -0.0160
     13 C          -4.1058   -1.9823   -0.3889 C.ar    1  UNL1       -0.0470
     14 C          -4.7052   -3.2967   -0.7388 C.3     1  UNL1       -0.0396
     15 C          -4.7542   -1.0973    0.4324 C.ar    1  UNL1       -0.0583
     16 C          -4.2117    0.1334    0.7705 C.ar    1  UNL1       -0.0546
     17 C          -2.9561    0.4730    0.2480 C.ar    1  UNL1       -0.0024
     18 C          -2.3766    1.7870    0.6087 C.3     1  UNL1       -0.0180
     19 C          -2.7690    2.8731   -0.3598 C.3     1  UNL1       -0.0585
     20 C          -2.7418    2.1763    2.0184 C.3     1  UNL1       -0.0585
     21 C           2.8896   -0.7332    0.6299 C.ar    1  UNL1       -0.0369
     22 C           4.2168   -0.8801    1.0488 C.ar    1  UNL1       -0.0182
     23 H           7.5025    1.0610   -0.0934 H       1  UNL1        0.0660
     24 H           7.5287   -0.4168   -1.0957 H       1  UNL1        0.0660
     25 H           8.6361   -0.3165    0.3554 H       1  UNL1        0.0660
     26 H           5.8241    0.6344   -1.4839 H       1  UNL1        0.0655
     27 H           3.5542    0.8986   -2.2238 H       1  UNL1        0.0637
     28 H           1.2398    0.6122   -1.9799 H       1  UNL1        0.1582
     29 H          -2.3465   -2.2737   -1.5200 H       1  UNL1        0.0657
     30 H          -3.9238   -4.0796   -0.8467 H       1  UNL1        0.0278
     31 H          -5.5051   -3.5665   -0.0518 H       1  UNL1        0.0278
     32 H          -5.1707   -3.1842   -1.7594 H       1  UNL1        0.0278
     33 H          -5.7335   -1.3801    0.8306 H       1  UNL1        0.0620
     34 H          -4.7585    0.7966    1.4199 H       1  UNL1        0.0622
     35 H          -1.2688    1.6790    0.5545 H       1  UNL1        0.0345
     36 H          -1.9449    3.6231   -0.3679 H       1  UNL1        0.0235
     37 H          -2.8723    2.4606   -1.3732 H       1  UNL1        0.0235
     38 H          -3.6734    3.4255   -0.0247 H       1  UNL1        0.0235
     39 H          -3.4942    2.9960    2.0328 H       1  UNL1        0.0235
     40 H          -1.8574    2.5214    2.5984 H       1  UNL1        0.0235
     41 H          -3.1049    1.2547    2.5231 H       1  UNL1        0.0235
     42 H           2.1529   -1.1506    1.2936 H       1  UNL1        0.0637
     43 H           4.4543   -1.3891    1.9908 H       1  UNL1        0.0655
@<TRIPOS>BOND
     1     1     2    1
     2     2     3    1
     3     3     4   ar
     4     4     5   ar
     5     5     6   ar
     6     6     7    1
     7     7     8   am
     8     8     9    2
     9     8    10    1
    10    10    11    1
    11    11    12   ar
    12    12    13   ar
    13    13    14    1
    14    13    15   ar
    15    15    16   ar
    16    16    17   ar
    17    17    18    1
    18    18    19    1
    19    18    20    1
    20     6    21   ar
    21    21    22   ar
    22    22     3   ar
    23    17    11   ar
    24     1    23    1
    25     1    24    1
    26     1    25    1
    27     4    26    1
    28     5    27    1
    29     7    28    1
    30    12    29    1
    31    14    30    1
    32    14    31    1
    33    14    32    1
    34    15    33    1
    35    16    34    1
    36    18    35    1
    37    19    36    1
    38    19    37    1
    39    19    38    1
    40    20    39    1
    41    20    40    1
    42    20    41    1
    43    21    42    1
    44    22    43    1
@<TRIPOS>MOLECULE
50333175
 32 33 0 0 0
SMALL
GASTEIGER

@<TRIPOS>ATOM
      1 O           1.6545   -1.2539   -0.8025 O.2     1  UNL1       -0.2705
      2 C           1.1390   -0.3195   -0.1497 C.2     1  UNL1        0.2411
      3 C          -0.3043   -0.1087   -0.0309 C.2     1  UNL1        0.0010
      4 C          -1.1863   -0.8976   -0.6103 C.2     1  UNL1       -0.0495
      5 C          -2.6241   -0.7186   -0.5139 C.ar    1  UNL1       -0.0185
      6 C          -3.4428   -1.6185   -1.1708 C.ar    1  UNL1       -0.0542
      7 C          -4.8154   -1.5525   -1.1533 C.ar    1  UNL1       -0.0548
      8 C          -5.4023   -0.5118   -0.4265 C.ar    1  UNL1        0.0156
      9 C          -4.6247    0.4072    0.2430 C.ar    1  UNL1        0.2737
     10 N          -5.2454    1.4474    0.9688 N.pl3   1  UNL1        0.0796
     11 O          -6.4773    1.5428    1.0102 O.2     1  UNL1        0.0414
     12 O          -4.4926    2.3710    1.6411 O.co2   1  UNL1       -0.5760
     13 C          -3.2375    0.2835    0.1849 C.ar    1  UNL1        0.0227
     14 N           2.0152    0.5775    0.5063 N.am    1  UNL1       -0.2811
     15 C           3.4179    0.4462    0.4431 C.ar    1  UNL1        0.0468
     16 C           4.0956   -0.2934    1.3607 C.ar    1  UNL1       -0.0395
     17 C           5.4635   -0.4092    1.2819 C.ar    1  UNL1       -0.0599
     18 C           6.1516    0.2301    0.2643 C.ar    1  UNL1       -0.0607
     19 C           5.4536    0.9635   -0.6411 C.ar    1  UNL1       -0.0468
     20 C           4.0798    1.0899   -0.5762 C.ar    1  UNL1        0.0346
     21 I           3.0203    2.2418   -2.0045 I       1  UNL1       -0.0419
     22 H          -0.6849    0.7190    0.5490 H       1  UNL1        0.0670
     23 H          -0.7508   -1.7231   -1.1874 H       1  UNL1        0.0625
     24 H          -2.9878   -2.4183   -1.7293 H       1  UNL1        0.0623
     25 H          -5.4586   -2.2580   -1.6683 H       1  UNL1        0.0620
     26 H          -6.4896   -0.4801   -0.4273 H       1  UNL1        0.0685
     27 H          -2.6576    1.0057    0.7105 H       1  UNL1        0.0691
     28 H           1.6338    1.3735    1.0637 H       1  UNL1        0.1551
     29 H           3.5542   -0.8016    2.1688 H       1  UNL1        0.0636
     30 H           6.0460   -0.9872    1.9897 H       1  UNL1        0.0618
     31 H           7.2228    0.1589    0.1753 H       1  UNL1        0.0618
     32 H           5.9340    1.4939   -1.4695 H       1  UNL1        0.0628
@<TRIPOS>UNITY_ATOM_ATTR
10 1
charge 1
12 1
charge -1
@<TRIPOS>BOND
     1     1     2    2
     2     2     3    1
     3     3     4    2
     4     4     5    1
     5     5     6   ar
     6     6     7   ar
     7     7     8   ar
     8     8     9   ar
     9     9    10    1
    10    10    11    2
    11    10    12    1
    12     9    13   ar
    13     2    14   am
    14    14    15    1
    15    15    16   ar
    16    16    17   ar
    17    17    18   ar
    18    18    19   ar
    19    19    20   ar
    20    20    21    1
    21    13     5   ar
    22    20    15   ar
    23     3    22    1
    24     4    23    1
    25     6    24    1
    26     7    25    1
    27     8    26    1
    28    13    27    1
    29    14    28    1
    30    16    29    1
    31    17    30    1
    32    18    31    1
    33    19    32    1
@<TRIPOS>MOLECULE
50333170
 36 37 0 0 0
SMALL
GASTEIGER

@<TRIPOS>ATOM
      1 C           6.7633   -0.1800   -1.5878 C.3     1  UNL1        0.0788
      2 O           5.3602   -0.0297   -1.7166 O.3     1  UNL1       -0.4951
      3 C           4.5650   -0.1412   -0.5921 C.ar    1  UNL1        0.1219
      4 C           5.1139   -0.3952    0.6468 C.ar    1  UNL1       -0.0198
      5 C           4.3351   -0.5095    1.7795 C.ar    1  UNL1       -0.0566
      6 C           2.9675   -0.3734    1.7171 C.ar    1  UNL1       -0.0402
      7 C           2.4137   -0.1192    0.4793 C.ar    1  UNL1        0.0371
      8 N           0.9841    0.0294    0.3755 N.am    1  UNL1       -0.2819
      9 C           0.1946   -1.1004    0.1290 C.2     1  UNL1        0.2411
     10 O           0.8217   -2.2112    0.0113 O.2     1  UNL1       -0.2705
     11 C          -1.2532   -1.1102   -0.0011 C.2     1  UNL1        0.0010
     12 C          -1.9575   -0.0269    0.1056 C.2     1  UNL1       -0.0495
     13 C          -3.4298    0.0177   -0.0182 C.ar    1  UNL1       -0.0185
     14 C          -4.1835   -1.0842   -0.2571 C.ar    1  UNL1       -0.0542
     15 C          -5.5707   -0.9872   -0.3651 C.ar    1  UNL1       -0.0548
     16 C          -6.2051    0.2379   -0.2301 C.ar    1  UNL1        0.0156
     17 C          -5.4504    1.3660    0.0130 C.ar    1  UNL1        0.2737
     18 N          -6.0809    2.6536    0.1581 N.pl3   1  UNL1        0.0796
     19 O          -7.2935    2.8099    0.0749 O.2     1  UNL1        0.0414
     20 O          -5.2877    3.7469    0.3992 O.co2   1  UNL1       -0.5760
     21 C          -4.0849    1.2194    0.1113 C.ar    1  UNL1        0.0227
     22 C           3.1956   -0.0033   -0.6643 C.ar    1  UNL1        0.0013
     23 H           7.2676   -0.1757   -2.5660 H       1  UNL1        0.0660
     24 H           7.1936    0.6105   -0.9201 H       1  UNL1        0.0660
     25 H           6.9428   -1.1731   -1.1205 H       1  UNL1        0.0660
     26 H           6.1974   -0.5026    0.6938 H       1  UNL1        0.0654
     27 H           4.7873   -0.7069    2.7283 H       1  UNL1        0.0619
     28 H           2.3296   -0.4577    2.5880 H       1  UNL1        0.0636
     29 H           0.5538    0.9586    0.4824 H       1  UNL1        0.1551
     30 H          -1.7536   -2.0390   -0.1905 H       1  UNL1        0.0670
     31 H          -1.4348    0.9083    0.2980 H       1  UNL1        0.0625
     32 H          -3.7632   -2.0486   -0.3704 H       1  UNL1        0.0623
     33 H          -6.1672   -1.8700   -0.5559 H       1  UNL1        0.0620
     34 H          -7.2789    0.3440   -0.3089 H       1  UNL1        0.0685
     35 H          -3.5222    2.1446    0.3057 H       1  UNL1        0.0691
     36 H           2.7305    0.1985   -1.6326 H       1  UNL1        0.0673
@<TRIPOS>UNITY_ATOM_ATTR
18 1
charge 1
20 1
charge -1
@<TRIPOS>BOND
     1     1     2    1
     2     2     3    1
     3     3     4   ar
     4     4     5   ar
     5     5     6   ar
     6     6     7   ar
     7     7     8    1
     8     8     9   am
     9     9    10    2
    10     9    11    1
    11    11    12    2
    12    12    13    1
    13    13    14   ar
    14    14    15   ar
    15    15    16   ar
    16    16    17   ar
    17    17    18    1
    18    18    19    2
    19    18    20    1
    20    17    21   ar
    21     7    22   ar
    22    22     3   ar
    23    21    13   ar
    24     1    23    1
    25     1    24    1
    26     1    25    1
    27     4    26    1
    28     5    27    1
    29     6    28    1
    30     8    29    1
    31    11    30    1
    32    12    31    1
    33    14    32    1
    34    15    33    1
    35    16    34    1
    36    21    35    1
    37    22    36    1
@<TRIPOS>MOLECULE
CHEMBL5083277
 44 45 0 0 0
SMALL
GASTEIGER

@<TRIPOS>ATOM
      1 C          -5.6768   -2.8471    0.8807 C.3     1  UNL1       -0.0306
      2 C          -4.9746   -2.7397   -0.4657 C.3     1  UNL1        0.0900
      3 O          -4.0671   -1.6825   -0.3802 O.3     1  UNL1       -0.4618
      4 C          -3.2327   -1.2670   -1.4077 C.2     1  UNL1        0.3349
      5 O          -3.2979   -1.8885   -2.4982 O.2     1  UNL1       -0.2455
      6 C          -2.3013   -0.1426   -1.2416 C.2     1  UNL1        0.0574
      7 C          -2.2321    0.5070   -0.1044 C.2     1  UNL1        0.1012
      8 O          -1.3739    1.5671    0.0962 O.3     1  UNL1       -0.4443
      9 C           0.0165    1.3990    0.2067 C.ar    1  UNL1        0.2419
     10 N           0.6365    0.2479    0.1336 N.ar    1  UNL1       -0.2042
     11 C           1.7783    0.0150    0.2136 C.ar    1  UNL1        0.1129
     12 C           2.6738   -1.1446    0.1652 C.ar    1  UNL1        0.0073
     13 C           4.0278   -0.9685    0.3115 C.ar    1  UNL1       -0.0518
     14 C           4.8570   -2.0905    0.2612 C.ar    1  UNL1       -0.0582
     15 C           4.3034   -3.3432    0.0671 C.ar    1  UNL1       -0.0504
     16 C           5.1481   -4.5709    0.0062 C.3     1  UNL1       -0.0397
     17 C           2.9350   -3.5159   -0.0802 C.ar    1  UNL1       -0.0582
     18 C           2.1373   -2.4062   -0.0283 C.ar    1  UNL1       -0.0518
     19 S           2.4966    1.7331    0.4759 S.2     1  UNL1       -0.0569
     20 C           0.8246    2.4861    0.4057 C.ar    1  UNL1        0.1598
     21 C           0.5883    3.8951    0.5439 C.2     1  UNL1        0.3512
     22 O           1.5689    4.6612    0.7224 O.2     1  UNL1       -0.2442
     23 O          -0.6582    4.4784    0.4941 O.3     1  UNL1       -0.4610
     24 C          -0.8934    5.8556    0.6287 C.3     1  UNL1        0.0900
     25 C          -0.2243    6.7015   -0.4019 C.3     1  UNL1       -0.0306
     26 H          -4.9545   -2.7103    1.6957 H       1  UNL1        0.0262
     27 H          -6.4259   -2.0314    0.9170 H       1  UNL1        0.0262
     28 H          -6.1728   -3.8367    0.9916 H       1  UNL1        0.0262
     29 H          -5.7093   -2.4771   -1.2708 H       1  UNL1        0.0695
     30 H          -4.5140   -3.7124   -0.6909 H       1  UNL1        0.0695
     31 H          -1.6813    0.1404   -2.0563 H       1  UNL1        0.0720
     32 H          -2.8788    0.1893    0.7005 H       1  UNL1        0.1032
     33 H           4.5021   -0.0218    0.4634 H       1  UNL1        0.0624
     34 H           5.9207   -2.0205    0.3683 H       1  UNL1        0.0620
     35 H           4.5562   -5.4330    0.3776 H       1  UNL1        0.0278
     36 H           6.0424   -4.3969    0.6368 H       1  UNL1        0.0278
     37 H           5.4122   -4.7935   -1.0424 H       1  UNL1        0.0278
     38 H           2.4813   -4.4785   -0.2319 H       1  UNL1        0.0620
     39 H           1.0609   -2.5253   -0.1423 H       1  UNL1        0.0624
     40 H          -0.5765    6.2266    1.6433 H       1  UNL1        0.0695
     41 H          -1.9884    5.9987    0.5943 H       1  UNL1        0.0695
     42 H          -0.8538    6.8740   -1.3050 H       1  UNL1        0.0262
     43 H           0.7845    6.3471   -0.6907 H       1  UNL1        0.0262
     44 H          -0.0650    7.7212    0.0370 H       1  UNL1        0.0262
@<TRIPOS>BOND
     1     1     2    1
     2     2     3    1
     3     3     4    1
     4     4     5    2
     5     4     6    1
     6     6     7    2
     7     7     8    1
     8     8     9    1
     9     9    10   ar
    10    10    11   ar
    11    11    12    1
    12    12    13   ar
    13    13    14   ar
    14    14    15   ar
    15    15    16    1
    16    15    17   ar
    17    17    18   ar
    18    11    19   ar
    19    19    20   ar
    20    20    21    1
    21    21    22    2
    22    21    23    1
    23    23    24    1
    24    24    25    1
    25    20     9   ar
    26    18    12   ar
    27     1    26    1
    28     1    27    1
    29     1    28    1
    30     2    29    1
    31     2    30    1
    32     6    31    1
    33     7    32    1
    34    13    33    1
    35    14    34    1
    36    16    35    1
    37    16    36    1
    38    16    37    1
    39    17    38    1
    40    18    39    1
    41    24    40    1
    42    24    41    1
    43    25    42    1
    44    25    43    1
    45    25    44    1
@<TRIPOS>MOLECULE
51131321
 49 52 0 0 0
SMALL
GASTEIGER

@<TRIPOS>ATOM
      1 O           0.7899   -1.2514    1.1424 O.2     1  UNL1       -0.2702
      2 C           0.6405   -0.3744    0.2235 C.2     1  UNL1        0.2446
      3 N          -0.6760   -0.2067   -0.2474 N.am    1  UNL1       -0.3027
      4 C          -1.7894   -0.9415    0.2383 C.3     1  UNL1        0.0701
      5 C          -2.9928   -0.0717    0.5318 C.3     1  UNL1       -0.0036
      6 C          -2.5895    0.9237    1.5692 C.ar    1  UNL1       -0.0452
      7 C          -2.7259    0.6636    2.9314 C.ar    1  UNL1       -0.0585
      8 C          -2.3507    1.5890    3.8839 C.ar    1  UNL1       -0.0615
      9 C          -1.8242    2.8116    3.5253 C.ar    1  UNL1       -0.0617
     10 C          -1.6841    3.0813    2.1815 C.ar    1  UNL1       -0.0615
     11 C          -2.0614    2.1515    1.2424 C.ar    1  UNL1       -0.0585
     12 C          -2.1194   -2.2447   -0.3198 C.ar    1  UNL1        0.0734
     13 N          -2.5146   -3.2597    0.5338 N.ar    1  UNL1       -0.2574
     14 C          -2.8887   -4.4729    0.1522 C.ar    1  UNL1        0.0280
     15 C          -2.8896   -4.7604   -1.1903 C.ar    1  UNL1       -0.0430
     16 C          -2.5055   -3.7881   -2.0727 C.ar    1  UNL1       -0.0469
     17 C          -2.1124   -2.5089   -1.6363 C.ar    1  UNL1        0.0779
     18 C          -1.6789   -1.5937   -2.6663 C.3     1  UNL1        0.4191
     19 F          -0.3679   -1.2196   -2.6757 F       1  UNL1       -0.1658
     20 F          -2.5509   -0.4834   -2.7142 F       1  UNL1       -0.1658
     21 F          -1.8751   -2.1624   -3.9152 F       1  UNL1       -0.1658
     22 C           1.8027    0.3602   -0.2511 C.ar    1  UNL1        0.0387
     23 C           1.7243    1.3143   -1.2341 C.ar    1  UNL1       -0.0489
     24 C           2.8132    2.0259   -1.7022 C.ar    1  UNL1       -0.0519
     25 C           4.0393    1.7549   -1.1448 C.ar    1  UNL1        0.0004
     26 C           5.1896    2.4109   -1.5424 C.ar    1  UNL1       -0.0511
     27 C           6.4001    2.1149   -0.9634 C.ar    1  UNL1       -0.0430
     28 C           6.4890    1.1598    0.0231 C.ar    1  UNL1        0.0283
     29 N           5.3679    0.5292    0.4018 N.ar    1  UNL1       -0.2550
     30 C           4.1799    0.8125   -0.1592 C.ar    1  UNL1        0.0717
     31 C           3.0520    0.1183    0.2822 C.ar    1  UNL1       -0.0236
     32 H          -0.8289    0.5447   -0.9730 H       1  UNL1        0.1497
     33 H          -1.4231   -1.2179    1.3032 H       1  UNL1        0.0567
     34 H          -3.4260    0.4191   -0.3362 H       1  UNL1        0.0335
     35 H          -3.8114   -0.6670    0.9923 H       1  UNL1        0.0335
     36 H          -3.1383   -0.2932    3.2314 H       1  UNL1        0.0620
     37 H          -2.4553    1.3904    4.9442 H       1  UNL1        0.0618
     38 H          -1.5311    3.5357    4.2914 H       1  UNL1        0.0618
     39 H          -1.2733    4.0356    1.9066 H       1  UNL1        0.0618
     40 H          -1.9445    2.3795    0.1890 H       1  UNL1        0.0620
     41 H          -3.1913   -5.2301    0.9002 H       1  UNL1        0.0829
     42 H          -3.1984   -5.7549   -1.4845 H       1  UNL1        0.0633
     43 H          -2.5141   -4.0421   -3.1454 H       1  UNL1        0.0624
     44 H           0.7734    1.5441   -1.6865 H       1  UNL1        0.0625
     45 H           2.7479    2.7762   -2.4761 H       1  UNL1        0.0624
     46 H           5.0809    3.1536   -2.3186 H       1  UNL1        0.0625
     47 H           7.2645    2.6523   -1.3072 H       1  UNL1        0.0633
     48 H           7.4319    0.9087    0.4949 H       1  UNL1        0.0830
     49 H           3.1455   -0.6163    1.0468 H       1  UNL1        0.0646
@<TRIPOS>BOND
     1     1     2    2
     2     2     3   am
     3     3     4    1
     4     4     5    1
     5     5     6    1
     6     6     7   ar
     7     7     8   ar
     8     8     9   ar
     9     9    10   ar
    10    10    11   ar
    11     4    12    1
    12    12    13   ar
    13    13    14   ar
    14    14    15   ar
    15    15    16   ar
    16    16    17   ar
    17    17    18    1
    18    18    19    1
    19    18    20    1
    20    18    21    1
    21     2    22    1
    22    22    23   ar
    23    23    24   ar
    24    24    25   ar
    25    25    26   ar
    26    26    27   ar
    27    27    28   ar
    28    28    29   ar
    29    29    30   ar
    30    30    31   ar
    31    11     6   ar
    32    17    12   ar
    33    31    22   ar
    34    30    25   ar
    35     3    32    1
    36     4    33    1
    37     5    34    1
    38     5    35    1
    39     7    36    1
    40     8    37    1
    41     9    38    1
    42    10    39    1
    43    11    40    1
    44    14    41    1
    45    15    42    1
    46    16    43    1
    47    23    44    1
    48    24    45    1
    49    26    46    1
    50    27    47    1
    51    28    48    1
    52    31    49    1
@<TRIPOS>MOLECULE
50342275
 52 55 0 0 0
SMALL
GASTEIGER

@<TRIPOS>ATOM
      1 C           0.1774    3.7710    1.5130 C.3     1  UNL1       -0.0422
      2 C           0.0395    3.0872    0.1710 C.3     1  UNL1        0.0491
      3 C          -1.2337    3.3728   -0.5099 C.ar    1  UNL1       -0.0271
      4 C          -2.3652    3.8357    0.1244 C.ar    1  UNL1       -0.0541
      5 C          -3.5374    4.1629   -0.5207 C.ar    1  UNL1       -0.0261
      6 C          -3.6367    4.0347   -1.9097 C.ar    1  UNL1        0.1234
      7 F          -4.7807    4.3612   -2.5602 F       1  UNL1       -0.2055
      8 C          -2.5210    3.5739   -2.5642 C.ar    1  UNL1       -0.0261
      9 C          -1.3580    3.2504   -1.9074 C.ar    1  UNL1       -0.0541
     10 N           0.3383    1.6423    0.2962 N.am    1  UNL1       -0.2849
     11 C          -0.4588    0.8578    1.1884 C.3     1  UNL1        0.0577
     12 C          -1.2882   -0.2070    0.6396 C.ar    1  UNL1        0.0595
     13 C          -2.4539   -0.0280   -0.0539 C.ar    1  UNL1       -0.0388
     14 C          -3.1713   -1.1163   -0.4749 C.ar    1  UNL1       -0.0578
     15 C          -2.7312   -2.3703   -0.2052 C.ar    1  UNL1       -0.0292
     16 CA         -1.5493   -2.5455    0.4989 C.ar    1  UNL1        0.1477
     17 C          -1.0810   -3.8972    0.7981 C.2     1  UNL1        0.3553
     18 O          -0.0091   -4.0867    1.4533 O.2     1  UNL1       -0.2434
     19 OXT        -1.7900   -5.0010    0.3779 O.3     1  UNL1       -0.4761
     20 N          -0.8803   -1.4693    0.8903 N.ar    1  UNL1       -0.2435
     21 C           1.4524    1.1575   -0.3604 C.2     1  UNL1        0.2489
     22 O           2.1918    1.9849   -1.0106 O.2     1  UNL1       -0.2699
     23 C           1.8830   -0.2082   -0.3985 C.ar    1  UNL1        0.0556
     24 C           1.2810   -1.1224   -1.2806 C.ar    1  UNL1        0.0404
     25 N           1.7115   -2.3935   -1.3035 N.ar    1  UNL1       -0.2542
     26 C           2.7063   -2.8556   -0.5163 C.ar    1  UNL1        0.0710
     27 C           3.1409   -4.1549   -0.5693 C.ar    1  UNL1       -0.0357
     28 C           4.1813   -4.6387    0.2247 C.ar    1  UNL1       -0.0597
     29 C           4.7765   -3.7656    1.0826 C.ar    1  UNL1       -0.0611
     30 C           4.3705   -2.4470    1.1716 C.ar    1  UNL1       -0.0525
     31 C           3.3403   -1.9954    0.3761 C.ar    1  UNL1        0.0011
     32 C           2.9048   -0.6845    0.4083 C.ar    1  UNL1       -0.0390
     33 H           1.1642    3.5396    1.9821 H       1  UNL1        0.0251
     34 H          -0.6049    3.4378    2.2274 H       1  UNL1        0.0251
     35 H           0.1152    4.8714    1.4314 H       1  UNL1        0.0251
     36 H           0.8694    3.5599   -0.4596 H       1  UNL1        0.0548
     37 H          -2.2998    3.9426    1.2107 H       1  UNL1        0.0622
     38 H          -4.4186    4.5280    0.0123 H       1  UNL1        0.0646
     39 H          -2.5910    3.4717   -3.6483 H       1  UNL1        0.0646
     40 H          -0.4675    2.8844   -2.4319 H       1  UNL1        0.0622
     41 H          -1.1110    1.5107    1.8411 H       1  UNL1        0.0529
     42 H           0.2621    0.4061    1.9400 H       1  UNL1        0.0529
     43 H          -2.7996    0.9708   -0.2623 H       1  UNL1        0.0636
     44 H          -4.0984   -0.9504   -1.0324 H       1  UNL1        0.0619
     45 H          -3.2725   -3.2530   -0.5218 H       1  UNL1        0.0641
     46 HXT        -1.8851   -5.8338    0.9877 H       1  UNL1        0.2955
     47 H           0.4714   -0.7652   -1.9217 H       1  UNL1        0.0837
     48 H           2.6297   -4.8190   -1.2666 H       1  UNL1        0.0639
     49 H           4.5162   -5.6624    0.1751 H       1  UNL1        0.0618
     50 H           5.6018   -4.1210    1.7078 H       1  UNL1        0.0618
     51 H           4.8740   -1.8139    1.8587 H       1  UNL1        0.0624
     52 H           3.3945   -0.0094    1.1023 H       1  UNL1        0.0632
@<TRIPOS>BOND
     1     1     2    1
     2     2     3    1
     3     3     4   ar
     4     4     5   ar
     5     5     6   ar
     6     6     7    1
     7     6     8   ar
     8     8     9   ar
     9     2    10    1
    10    10    11    1
    11    11    12    1
    12    12    13   ar
    13    13    14   ar
    14    14    15   ar
    15    15    16   ar
    16    16    17    1
    17    17    18    2
    18    17    19    1
    19    16    20   ar
    20    10    21   am
    21    21    22    2
    22    21    23    1
    23    23    24   ar
    24    24    25   ar
    25    25    26   ar
    26    26    27   ar
    27    27    28   ar
    28    28    29   ar
    29    29    30   ar
    30    30    31   ar
    31    31    32   ar
    32     9     3   ar
    33    20    12   ar
    34    32    23   ar
    35    31    26   ar
    36     1    33    1
    37     1    34    1
    38     1    35    1
    39     2    36    1
    40     4    37    1
    41     5    38    1
    42     8    39    1
    43     9    40    1
    44    11    41    1
    45    11    42    1
    46    13    43    1
    47    14    44    1
    48    15    45    1
    49    19    46    1
    50    24    47    1
    51    27    48    1
    52    28    49    1
    53    29    50    1
    54    30    51    1
    55    32    52    1
@<TRIPOS>MOLECULE
51366414
 49 51 0 0 0
SMALL
GASTEIGER

@<TRIPOS>ATOM
      1 C          -0.8566   -1.4443    1.7959 C.3     1  UNL1       -0.0422
      2 C          -0.9881   -0.8015    0.4369 C.3     1  UNL1        0.0497
      3 C          -1.2582   -1.8439   -0.5836 C.ar    1  UNL1       -0.0272
      4 C          -1.3048   -3.1813   -0.2484 C.ar    1  UNL1       -0.0568
      5 C          -1.5688   -4.1872   -1.1251 C.ar    1  UNL1       -0.0614
      6 C          -1.8078   -3.8383   -2.4511 C.ar    1  UNL1       -0.0617
      7 C          -1.7730   -2.5177   -2.8362 C.ar    1  UNL1       -0.0614
      8 C          -1.5011   -1.5492   -1.9021 C.ar    1  UNL1       -0.0568
      9 N           0.1729    0.0024    0.1684 N.am    1  UNL1       -0.2751
     10 C          -0.0054    1.3871   -0.0553 C.2     1  UNL1        0.2480
     11 O           1.0170    2.0949   -0.2873 O.2     1  UNL1       -0.2699
     12 C          -1.2691    2.0916   -0.0458 C.ar    1  UNL1        0.0369
     13 C          -2.1161    2.1950    1.0247 C.ar    1  UNL1       -0.0496
     14 C          -3.3091    2.8828    0.9644 C.ar    1  UNL1       -0.0610
     15 C          -3.7043    3.5066   -0.1981 C.ar    1  UNL1       -0.0617
     16 C          -2.8652    3.4151   -1.2885 C.ar    1  UNL1       -0.0610
     17 C          -1.6665    2.7169   -1.2094 C.ar    1  UNL1       -0.0496
     18 C           1.4672   -0.5844    0.0730 C.3     1  UNL1        0.1280
     19 C           2.0439   -0.5261   -1.3038 C.2     1  UNL1        0.2356
     20 N           1.5610    0.3769   -2.2589 N.am    1  UNL1       -0.3275
     21 O           2.9750   -1.3038   -1.5854 O.2     1  UNL1       -0.2736
     22 C           2.5064   -0.0130    0.9639 C.ar    1  UNL1       -0.0182
     23 C           2.3620   -0.0392    2.3130 C.ar    1  UNL1       -0.0563
     24 C           3.3322    0.5137    3.1634 C.ar    1  UNL1       -0.0614
     25 C           4.4399    1.0859    2.5918 C.ar    1  UNL1       -0.0617
     26 C           4.6074    1.1241    1.2326 C.ar    1  UNL1       -0.0614
     27 C           3.6478    0.5791    0.4240 C.ar    1  UNL1       -0.0563
     28 H          -0.8416   -0.6849    2.6103 H       1  UNL1        0.0251
     29 H           0.0174   -2.0961    1.8136 H       1  UNL1        0.0251
     30 H          -1.8208   -2.0061    1.9862 H       1  UNL1        0.0251
     31 H          -1.9177   -0.1534    0.4150 H       1  UNL1        0.0548
     32 H          -1.1147   -3.4462    0.7799 H       1  UNL1        0.0621
     33 H          -1.5876   -5.2020   -0.7832 H       1  UNL1        0.0618
     34 H          -2.0160   -4.6525   -3.1352 H       1  UNL1        0.0618
     35 H          -1.9659   -2.2896   -3.8882 H       1  UNL1        0.0618
     36 H          -1.4920   -0.5233   -2.2221 H       1  UNL1        0.0621
     37 H          -1.8552    1.7268    1.9535 H       1  UNL1        0.0625
     38 H          -3.9784    2.9565    1.8320 H       1  UNL1        0.0618
     39 H          -4.6469    4.0584   -0.2710 H       1  UNL1        0.0618
     40 H          -3.1782    3.9094   -2.2077 H       1  UNL1        0.0618
     41 H          -1.0863    2.7092   -2.1267 H       1  UNL1        0.0625
     42 H           1.3665   -1.6795    0.3490 H       1  UNL1        0.0648
     43 H           0.5687    0.5160   -2.4743 H       1  UNL1        0.1450
     44 H           2.2163    0.9939   -2.8368 H       1  UNL1        0.1450
     45 H           1.5033   -0.4879    2.8271 H       1  UNL1        0.0621
     46 H           3.2166    0.4920    4.2447 H       1  UNL1        0.0618
     47 H           5.2079    1.5218    3.2443 H       1  UNL1        0.0618
     48 H           5.5006    1.5850    0.7727 H       1  UNL1        0.0618
     49 H           3.7659    0.6102   -0.6552 H       1  UNL1        0.0621
@<TRIPOS>BOND
     1     1     2    1
     2     2     3    1
     3     3     4   ar
     4     4     5   ar
     5     5     6   ar
     6     6     7   ar
     7     7     8   ar
     8     2     9    1
     9     9    10   am
    10    10    11    2
    11    10    12    1
    12    12    13   ar
    13    13    14   ar
    14    14    15   ar
    15    15    16   ar
    16    16    17   ar
    17     9    18    1
    18    18    19    1
    19    19    20   am
    20    19    21    2
    21    18    22    1
    22    22    23   ar
    23    23    24   ar
    24    24    25   ar
    25    25    26   ar
    26    26    27   ar
    27     8     3   ar
    28    17    12   ar
    29    27    22   ar
    30     1    28    1
    31     1    29    1
    32     1    30    1
    33     2    31    1
    34     4    32    1
    35     5    33    1
    36     6    34    1
    37     7    35    1
    38     8    36    1
    39    13    37    1
    40    14    38    1
    41    15    39    1
    42    16    40    1
    43    17    41    1
    44    18    42    1
    45    20    43    1
    46    20    44    1
    47    23    45    1
    48    24    46    1
    49    25    47    1
    50    26    48    1
    51    27    49    1
@<TRIPOS>MOLECULE
50254059
 44 44 0 0 0
SMALL
GASTEIGER

@<TRIPOS>ATOM
      1 C           5.7875    0.7533   -0.5671 C.3     1  UNL1       -0.0440
      2 C           5.1818    0.9367    0.7783 C.2     1  UNL1       -0.0796
      3 C           5.8224    1.9109    1.6992 C.3     1  UNL1       -0.0440
      4 C           4.1034    0.2453    1.1309 C.2     1  UNL1       -0.0850
      5 C           3.4354   -0.7283    0.2548 C.3     1  UNL1       -0.0308
      6 C           1.9802   -0.3178   -0.0044 C.3     1  UNL1       -0.0285
      7 C           1.3447   -1.2925   -0.8693 C.2     1  UNL1       -0.0731
      8 C           1.8969   -1.5426   -2.2549 C.3     1  UNL1       -0.0437
      9 C           0.2965   -1.9815   -0.5084 C.2     1  UNL1       -0.0480
     10 C          -0.3431   -1.8495    0.7893 C.3     1  UNL1        0.1113
     11 O          -1.7034   -1.4411    0.7050 O.3     1  UNL1       -0.4570
     12 C          -2.0819   -0.2378    0.1178 C.2     1  UNL1        0.3395
     13 O          -1.1791    0.4799   -0.3377 O.2     1  UNL1       -0.2450
     14 C          -3.5029    0.1306    0.0598 C.ar    1  UNL1        0.0590
     15 C          -4.4724   -0.6978    0.5789 C.ar    1  UNL1       -0.0475
     16 C          -5.8163   -0.3806    0.5403 C.ar    1  UNL1       -0.0581
     17 C          -6.2448    0.8008   -0.0309 C.ar    1  UNL1       -0.0504
     18 C          -7.6852    1.1750   -0.0900 C.3     1  UNL1       -0.0397
     19 C          -5.2717    1.6289   -0.5501 C.ar    1  UNL1       -0.0581
     20 C          -3.9272    1.3096   -0.5104 C.ar    1  UNL1       -0.0475
     21 H           5.0986    1.1157   -1.3764 H       1  UNL1        0.0274
     22 H           5.9357   -0.3488   -0.6925 H       1  UNL1        0.0274
     23 H           6.7121    1.3200   -0.6710 H       1  UNL1        0.0274
     24 H           5.1247    2.2574    2.4933 H       1  UNL1        0.0274
     25 H           6.6519    1.3863    2.2420 H       1  UNL1        0.0274
     26 H           6.2235    2.7508    1.1077 H       1  UNL1        0.0274
     27 H           3.7026    0.4137    2.1157 H       1  UNL1        0.0572
     28 H           3.9269   -0.6975   -0.7377 H       1  UNL1        0.0310
     29 H           3.4969   -1.7758    0.6131 H       1  UNL1        0.0310
     30 H           1.4640    0.0102    0.8869 H       1  UNL1        0.0313
     31 H           2.0996    0.6346   -0.6201 H       1  UNL1        0.0313
     32 H           2.6373   -2.3734   -2.1639 H       1  UNL1        0.0274
     33 H           1.0920   -1.8253   -2.9586 H       1  UNL1        0.0274
     34 H           2.3311   -0.5986   -2.5842 H       1  UNL1        0.0274
     35 H          -0.1426   -2.7052   -1.2055 H       1  UNL1        0.0605
     36 H           0.1474   -1.2860    1.5655 H       1  UNL1        0.0743
     37 H          -0.4179   -2.9084    1.2042 H       1  UNL1        0.0743
     38 H          -4.1401   -1.6204    1.0251 H       1  UNL1        0.0626
     39 H          -6.5717   -1.0498    0.9569 H       1  UNL1        0.0620
     40 H          -8.3009    0.3036    0.2049 H       1  UNL1        0.0278
     41 H          -7.9832    1.5769   -1.0684 H       1  UNL1        0.0278
     42 H          -7.9291    1.9753    0.6622 H       1  UNL1        0.0278
     43 H          -5.6122    2.5633   -1.0017 H       1  UNL1        0.0620
     44 H          -3.1671    1.9814   -0.9289 H       1  UNL1        0.0626
@<TRIPOS>BOND
     1     1     2    1
     2     2     3    1
     3     2     4    2
     4     4     5    1
     5     5     6    1
     6     6     7    1
     7     7     8    1
     8     7     9    2
     9     9    10    1
    10    10    11    1
    11    11    12    1
    12    12    13    2
    13    12    14    1
    14    14    15   ar
    15    15    16   ar
    16    16    17   ar
    17    17    18    1
    18    17    19   ar
    19    19    20   ar
    20    20    14   ar
    21     1    21    1
    22     1    22    1
    23     1    23    1
    24     3    24    1
    25     3    25    1
    26     3    26    1
    27     4    27    1
    28     5    28    1
    29     5    29    1
    30     6    30    1
    31     6    31    1
    32     8    32    1
    33     8    33    1
    34     8    34    1
    35     9    35    1
    36    10    36    1
    37    10    37    1
    38    15    38    1
    39    16    39    1
    40    18    40    1
    41    18    41    1
    42    18    42    1
    43    19    43    1
    44    20    44    1
@<TRIPOS>MOLECULE
51324158
 67 70 0 0 0
SMALL
GASTEIGER

@<TRIPOS>ATOM
      1 C           9.3153   -0.0319    1.5157 C.3     1  UNL1        0.0790
      2 O           8.4914   -0.6092    0.5247 O.3     1  UNL1       -0.4915
      3 C           7.1152   -0.4938    0.5700 C.ar    1  UNL1        0.1615
      4 C           6.5628    0.2123    1.6260 C.ar    1  UNL1       -0.0160
      5 C           5.2150    0.3579    1.7212 C.ar    1  UNL1       -0.0548
      6 C           4.3704   -0.1897    0.7750 C.ar    1  UNL1       -0.0422
      7 C           2.8822    0.0045    0.9282 C.3     1  UNL1       -0.0119
      8 C           2.5468    1.2601    0.1975 C.3     1  UNL1        0.0170
      9 N           1.1722    1.6505    0.2132 N.am    1  UNL1       -0.2989
     10 C           0.1382    0.8417   -0.3249 C.2     1  UNL1        0.3030
     11 O           0.5401   -0.2663   -0.8227 O.2     1  UNL1       -0.2526
     12 N          -1.2227    1.2028   -0.3245 N.am    1  UNL1       -0.2743
     13 C          -1.6620    2.4548    0.2226 C.3     1  UNL1        0.0210
     14 C          -2.7712    3.0212   -0.6919 C.3     1  UNL1       -0.0113
     15 C          -3.8838    2.0032   -0.6092 C.ar    1  UNL1       -0.0369
     16 C          -5.1877    2.4052   -0.4359 C.ar    1  UNL1       -0.0127
     17 C          -6.1827    1.4542   -0.3513 C.ar    1  UNL1        0.1618
     18 O          -7.5190    1.7980   -0.1761 O.3     1  UNL1       -0.4914
     19 C          -7.9592    3.1379   -0.0709 C.3     1  UNL1        0.0790
     20 C          -5.9084    0.0976   -0.4355 C.ar    1  UNL1        0.1618
     21 O          -6.9359   -0.8524   -0.3466 O.3     1  UNL1       -0.4914
     22 C          -6.5892   -2.2110   -0.4385 C.3     1  UNL1        0.0790
     23 C          -4.5944   -0.2766   -0.6092 C.ar    1  UNL1       -0.0108
     24 C          -3.5588    0.6630   -0.6994 C.ar    1  UNL1       -0.0157
     25 C          -2.1608    0.2580   -0.8937 C.3     1  UNL1        0.0783
     26 C          -1.8650   -1.0582   -0.2624 C.ar    1  UNL1       -0.0226
     27 C          -1.8008   -2.1837   -1.0483 C.ar    1  UNL1       -0.0565
     28 C          -1.5253   -3.4397   -0.4858 C.ar    1  UNL1       -0.0614
     29 C          -1.3142   -3.5707    0.8688 C.ar    1  UNL1       -0.0617
     30 C          -1.3825   -2.4330    1.6419 C.ar    1  UNL1       -0.0614
     31 C          -1.6540   -1.1889    1.0912 C.ar    1  UNL1       -0.0565
     32 C           4.9151   -0.8930   -0.2773 C.ar    1  UNL1       -0.0131
     33 C           6.2843   -1.0438   -0.3780 C.ar    1  UNL1        0.1617
     34 O           6.8673   -1.7478   -1.4281 O.3     1  UNL1       -0.4914
     35 C           6.1460   -2.3602   -2.4646 C.3     1  UNL1        0.0790
     36 H           9.1166   -0.5601    2.4845 H       1  UNL1        0.0660
     37 H           9.0526    1.0410    1.6801 H       1  UNL1        0.0660
     38 H          10.3681   -0.1719    1.1857 H       1  UNL1        0.0660
     39 H           7.1784    0.6635    2.3972 H       1  UNL1        0.0655
     40 H           4.7435    0.9123    2.5474 H       1  UNL1        0.0621
     41 H           2.6844    0.0460    2.0088 H       1  UNL1        0.0328
     42 H           2.3436   -0.8430    0.4690 H       1  UNL1        0.0328
     43 H           2.9091    1.1555   -0.8535 H       1  UNL1        0.0466
     44 H           3.1515    2.0737    0.6644 H       1  UNL1        0.0466
     45 H           0.9469    2.5823    0.6520 H       1  UNL1        0.1502
     46 H          -2.1707    2.3155    1.2184 H       1  UNL1        0.0468
     47 H          -0.8839    3.1949    0.3681 H       1  UNL1        0.0468
     48 H          -3.0968    4.0004   -0.2888 H       1  UNL1        0.0328
     49 H          -2.4156    3.1630   -1.7129 H       1  UNL1        0.0328
     50 H          -5.4490    3.4685   -0.3642 H       1  UNL1        0.0658
     51 H          -9.0410    3.1983   -0.3118 H       1  UNL1        0.0660
     52 H          -7.8769    3.5017    0.9868 H       1  UNL1        0.0660
     53 H          -7.4283    3.8263   -0.7376 H       1  UNL1        0.0660
     54 H          -5.9140   -2.4181   -1.2893 H       1  UNL1        0.0660
     55 H          -5.9863   -2.4459    0.4860 H       1  UNL1        0.0660
     56 H          -7.4647   -2.8791   -0.4118 H       1  UNL1        0.0660
     57 H          -4.3073   -1.3186   -0.6826 H       1  UNL1        0.0659
     58 H          -1.9983    0.1487   -1.9989 H       1  UNL1        0.0601
     59 H          -1.9645   -2.0983   -2.1171 H       1  UNL1        0.0621
     60 H          -1.4718   -4.3353   -1.0901 H       1  UNL1        0.0618
     61 H          -1.1016   -4.5454    1.3042 H       1  UNL1        0.0618
     62 H          -1.2171   -2.5371    2.7099 H       1  UNL1        0.0618
     63 H          -1.7102   -0.2903    1.6835 H       1  UNL1        0.0621
     64 H           4.2662   -1.3241   -1.0216 H       1  UNL1        0.0658
     65 H           6.8701   -2.5813   -3.2986 H       1  UNL1        0.0660
     66 H           5.3667   -1.6341   -2.8285 H       1  UNL1        0.0660
     67 H           5.6155   -3.2823   -2.1599 H       1  UNL1        0.0660
@<TRIPOS>BOND
     1     1     2    1
     2     2     3    1
     3     3     4   ar
     4     4     5   ar
     5     5     6   ar
     6     6     7    1
     7     7     8    1
     8     8     9    1
     9     9    10   am
    10    10    11    2
    11    10    12   am
    12    12    13    1
    13    13    14    1
    14    14    15    1
    15    15    16   ar
    16    16    17   ar
    17    17    18    1
    18    18    19    1
    19    17    20   ar
    20    20    21    1
    21    21    22    1
    22    20    23   ar
    23    23    24   ar
    24    24    25    1
    25    25    26    1
    26    26    27   ar
    27    27    28   ar
    28    28    29   ar
    29    29    30   ar
    30    30    31   ar
    31     6    32   ar
    32    32    33   ar
    33    33    34    1
    34    34    35    1
    35    33     3   ar
    36    25    12    1
    37    31    26   ar
    38    24    15   ar
    39     1    36    1
    40     1    37    1
    41     1    38    1
    42     4    39    1
    43     5    40    1
    44     7    41    1
    45     7    42    1
    46     8    43    1
    47     8    44    1
    48     9    45    1
    49    13    46    1
    50    13    47    1
    51    14    48    1
    52    14    49    1
    53    16    50    1
    54    19    51    1
    55    19    52    1
    56    19    53    1
    57    22    54    1
    58    22    55    1
    59    22    56    1
    60    23    57    1
    61    25    58    1
    62    27    59    1
    63    28    60    1
    64    29    61    1
    65    30    62    1
    66    31    63    1
    67    32    64    1
    68    35    65    1
    69    35    66    1
    70    35    67    1
@<TRIPOS>MOLECULE
51467440
 50 54 0 0 0
SMALL
GASTEIGER

@<TRIPOS>ATOM
      1 O           2.1323   -1.8755    1.8023 O.2     1  UNL1       -0.2727
      2 C           1.4735   -1.1690    0.9881 C.2     1  UNL1        0.2483
      3 C           0.0079   -1.0961    0.8183 C.3     1  UNL1        0.1095
      4 C          -0.5766   -2.4918    0.5472 C.3     1  UNL1        0.0001
      5 C          -2.0357   -2.2446    0.3254 C.ar    1  UNL1       -0.0362
      6 C          -2.9011   -3.1712    0.9021 C.ar    1  UNL1       -0.0130
      7 C          -4.2585   -3.0323    0.7607 C.ar    1  UNL1        0.1585
      8 O          -5.1355   -3.9557    1.3349 O.3     1  UNL1       -0.5033
      9 C          -4.7239   -1.9606    0.0396 C.ar    1  UNL1        0.1586
     10 O          -6.1024   -1.8015   -0.1157 O.3     1  UNL1       -0.5033
     11 C          -3.8556   -1.0392   -0.5336 C.ar    1  UNL1       -0.0110
     12 C          -2.5047   -1.1755   -0.3943 C.ar    1  UNL1       -0.0156
     13 C          -1.5262   -0.2312   -0.9828 C.3     1  UNL1        0.0791
     14 C          -1.9742    1.1748   -0.8698 C.ar    1  UNL1       -0.0224
     15 C          -2.5399    1.8022   -1.9504 C.ar    1  UNL1       -0.0538
     16 C          -2.9712    3.1319   -1.8687 C.ar    1  UNL1       -0.0261
     17 C          -2.8269    3.8239   -0.6868 C.ar    1  UNL1        0.1234
     18 F          -3.2280    5.1215   -0.5461 F       1  UNL1       -0.2055
     19 C          -2.2617    3.2035    0.3993 C.ar    1  UNL1       -0.0261
     20 C          -1.8357    1.8745    0.3020 C.ar    1  UNL1       -0.0538
     21 N          -0.2215   -0.3420   -0.3745 N.am    1  UNL1       -0.2619
     22 C           1.0265    0.2119   -0.7674 C.2     1  UNL1        0.3170
     23 O           1.1792    1.0398   -1.7281 O.2     1  UNL1       -0.2516
     24 N           2.0703   -0.2805    0.0515 N.am    1  UNL1       -0.1925
     25 C           3.4688    0.0209   -0.0053 C.ar    1  UNL1        0.0460
     26 C           4.3443   -0.7174   -0.7772 C.ar    1  UNL1       -0.0398
     27 C           5.6932   -0.4560   -0.8552 C.ar    1  UNL1       -0.0595
     28 C           6.1840    0.6030   -0.1179 C.ar    1  UNL1       -0.0500
     29 C           5.3546    1.3759    0.6717 C.ar    1  UNL1        0.0566
     30 C           5.9402    2.5180    1.4550 C.3     1  UNL1        0.4175
     31 F           7.1587    2.8897    0.9450 F       1  UNL1       -0.1659
     32 F           6.0386    2.2207    2.7882 F       1  UNL1       -0.1659
     33 F           5.0775    3.5967    1.2748 F       1  UNL1       -0.1659
     34 C           4.0224    1.0737    0.7138 C.ar    1  UNL1       -0.0282
     35 H          -0.5083   -0.7138    1.7068 H       1  UNL1        0.0601
     36 H          -0.0803   -2.8834   -0.3589 H       1  UNL1        0.0336
     37 H          -0.3916   -3.1286    1.4116 H       1  UNL1        0.0336
     38 H          -2.5206   -4.0141    1.4698 H       1  UNL1        0.0658
     39 H          -5.2079   -4.8683    0.9400 H       1  UNL1        0.2923
     40 H          -6.5480   -2.3994   -0.8085 H       1  UNL1        0.2923
     41 H          -4.2318   -0.2063   -1.0946 H       1  UNL1        0.0659
     42 H          -1.4774   -0.5391   -2.0781 H       1  UNL1        0.0602
     43 H          -2.6889    1.3277   -2.9149 H       1  UNL1        0.0622
     44 H          -3.4155    3.6379   -2.7029 H       1  UNL1        0.0646
     45 H          -2.1542    3.7582    1.3214 H       1  UNL1        0.0646
     46 H          -1.4010    1.4557    1.1993 H       1  UNL1        0.0622
     47 H           3.9459   -1.5422   -1.3480 H       1  UNL1        0.0636
     48 H           6.3898   -1.0214   -1.4519 H       1  UNL1        0.0618
     49 H           7.2369    0.8292   -0.1612 H       1  UNL1        0.0623
     50 H           3.3603    1.6652    1.3239 H       1  UNL1        0.0642
@<TRIPOS>BOND
     1     1     2    2
     2     2     3    1
     3     3     4    1
     4     4     5    1
     5     5     6   ar
     6     6     7   ar
     7     7     8    1
     8     7     9   ar
     9     9    10    1
    10     9    11   ar
    11    11    12   ar
    12    12    13    1
    13    13    14    1
    14    14    15   ar
    15    15    16   ar
    16    16    17   ar
    17    17    18    1
    18    17    19   ar
    19    19    20   ar
    20    13    21    1
    21    21    22   am
    22    22    23    2
    23    22    24   am
    24    24    25    1
    25    25    26   ar
    26    26    27   ar
    27    27    28   ar
    28    28    29   ar
    29    29    30    1
    30    30    31    1
    31    30    32    1
    32    30    33    1
    33    29    34   ar
    34    24     2   am
    35    34    25   ar
    36    21     3    1
    37    12     5   ar
    38    20    14   ar
    39     3    35    1
    40     4    36    1
    41     4    37    1
    42     6    38    1
    43     8    39    1
    44    10    40    1
    45    11    41    1
    46    13    42    1
    47    15    43    1
    48    16    44    1
    49    19    45    1
    50    20    46    1
    51    26    47    1
    52    27    48    1
    53    28    49    1
    54    34    50    1
@<TRIPOS>MOLECULE
25234755
 47 50 0 0 0
SMALL
GASTEIGER

@<TRIPOS>ATOM
      1 O          -0.5340   -0.6732    0.7810 O.2     1  UNL1       -0.2523
      2 C          -1.0300    0.0614   -0.1330 C.2     1  UNL1        0.3072
      3 N          -2.4340   -0.0026   -0.3074 N.am    1  UNL1       -0.2693
      4 C          -3.3623   -0.7908    0.4209 C.ar    1  UNL1        0.0349
      5 C          -4.6961   -0.6348    0.0114 C.ar    1  UNL1       -0.0377
      6 C          -5.7027   -1.3338    0.6252 C.ar    1  UNL1       -0.0247
      7 C          -5.3993   -2.1995    1.6563 C.ar    1  UNL1        0.1235
      8 F          -6.4294   -2.8669    2.2303 F       1  UNL1       -0.2055
      9 C          -4.0897   -2.3529    2.0587 C.ar    1  UNL1       -0.0247
     10 C          -3.0574   -1.6422    1.4362 C.ar    1  UNL1       -0.0377
     11 N          -0.1974    0.8900   -0.9210 N.am    1  UNL1       -0.2740
     12 C          -0.7112    1.8118   -1.9266 C.3     1  UNL1        0.0211
     13 C           0.1706    3.0658   -1.9821 C.3     1  UNL1       -0.0100
     14 C           0.8485    3.2969   -0.6811 C.ar    1  UNL1       -0.0225
     15 C           0.8847    4.5099   -0.1073 C.ar    1  UNL1        0.0311
     16 N           1.4636    4.6883    1.1077 N.ar    1  UNL1       -0.2630
     17 C           2.0121    3.6576    1.7640 C.ar    1  UNL1        0.0279
     18 C           1.9875    2.3819    1.1871 C.ar    1  UNL1       -0.0381
     19 C           1.4275    2.1844   -0.0050 C.ar    1  UNL1       -0.0165
     20 C           1.2600    0.9525   -0.8140 C.3     1  UNL1        0.0783
     21 C           1.9789   -0.2309   -0.5379 C.ar    1  UNL1       -0.0225
     22 C           3.1846   -0.2688    0.1005 C.ar    1  UNL1       -0.0559
     23 C           3.8377   -1.4900    0.3495 C.ar    1  UNL1       -0.0498
     24 C           3.2939   -2.6850   -0.0385 C.ar    1  UNL1        0.0548
     25 C           3.9821   -3.9959    0.2227 C.3     1  UNL1        0.4174
     26 F           3.7094   -4.8232   -0.8624 F       1  UNL1       -0.1659
     27 F           5.3480   -3.7857    0.2699 F       1  UNL1       -0.1659
     28 F           3.4875   -4.5128    1.3852 F       1  UNL1       -0.1659
     29 C           2.0783   -2.6565   -0.6862 C.ar    1  UNL1       -0.0498
     30 C           1.4410   -1.4660   -0.9289 C.ar    1  UNL1       -0.0559
     31 H          -2.7974    0.6270   -1.0920 H       1  UNL1        0.1564
     32 H          -4.9661    0.0521   -0.8118 H       1  UNL1        0.0637
     33 H          -6.7489   -1.2114    0.3039 H       1  UNL1        0.0647
     34 H          -3.8536   -3.0323    2.8676 H       1  UNL1        0.0647
     35 H          -2.0446   -1.7742    1.7625 H       1  UNL1        0.0637
     36 H          -0.7112    1.2838   -2.8948 H       1  UNL1        0.0468
     37 H          -1.7106    2.1541   -1.6757 H       1  UNL1        0.0468
     38 H          -0.4592    3.9409   -2.2010 H       1  UNL1        0.0329
     39 H           0.8648    2.9145   -2.8263 H       1  UNL1        0.0329
     40 H           0.4648    5.4152   -0.5597 H       1  UNL1        0.0832
     41 H           2.4844    3.7597    2.7388 H       1  UNL1        0.0829
     42 H           2.4003    1.5445    1.7567 H       1  UNL1        0.0636
     43 H           1.5981    1.2631   -1.8794 H       1  UNL1        0.0601
     44 H           3.7450    0.6019    0.4169 H       1  UNL1        0.0621
     45 H           4.7900   -1.5041    0.8570 H       1  UNL1        0.0623
     46 H           1.6721   -3.6184   -0.9827 H       1  UNL1        0.0623
     47 H           0.5197   -1.5054   -1.4552 H       1  UNL1        0.0621
@<TRIPOS>BOND
     1     1     2    2
     2     2     3   am
     3     3     4    1
     4     4     5   ar
     5     5     6   ar
     6     6     7   ar
     7     7     8    1
     8     7     9   ar
     9     9    10   ar
    10     2    11   am
    11    11    12    1
    12    12    13    1
    13    13    14    1
    14    14    15   ar
    15    15    16   ar
    16    16    17   ar
    17    17    18   ar
    18    18    19   ar
    19    19    20    1
    20    20    21    1
    21    21    22   ar
    22    22    23   ar
    23    23    24   ar
    24    24    25    1
    25    25    26    1
    26    25    27    1
    27    25    28    1
    28    24    29   ar
    29    29    30   ar
    30    10     4   ar
    31    20    11    1
    32    30    21   ar
    33    19    14   ar
    34     3    31    1
    35     5    32    1
    36     6    33    1
    37     9    34    1
    38    10    35    1
    39    12    36    1
    40    12    37    1
    41    13    38    1
    42    13    39    1
    43    15    40    1
    44    17    41    1
    45    18    42    1
    46    20    43    1
    47    22    44    1
    48    23    45    1
    49    29    46    1
    50    30    47    1
@<TRIPOS>MOLECULE
1060765
 28 29 0 0 0
SMALL
GASTEIGER

@<TRIPOS>ATOM
      1 C          -3.9118    0.8662   -0.8871 C.3     1  UNL1       -0.0598
      2 C          -3.8738   -0.6224   -0.5146 C.3     1  UNL1       -0.0127
      3 C          -3.0510   -0.7180    0.7096 C.2     1  UNL1        0.0511
      4 N          -3.5843   -1.2020    1.7758 N.2     1  UNL1       -0.3027
      5 C          -1.6701   -0.2628    0.6654 C.ar    1  UNL1        0.0960
      6 S          -0.2955   -1.2258   -0.0986 S.2     1  UNL1       -0.0621
      7 C           0.9407    0.1345    0.3463 C.ar    1  UNL1        0.1128
      8 C           2.3733   -0.1076   -0.0628 C.ar    1  UNL1        0.0100
      9 C           3.2986    0.8585    0.2438 C.ar    1  UNL1       -0.0519
     10 C           4.6202    0.7125   -0.0943 C.ar    1  UNL1       -0.0584
     11 C           5.0537   -0.4340   -0.7639 C.ar    1  UNL1       -0.0264
     12 C           4.0971   -1.3812   -1.0547 C.ar    1  UNL1        0.1240
     13 F           4.4992   -2.5061   -1.7071 F       1  UNL1       -0.2055
     14 C           2.7543   -1.2295   -0.7094 C.ar    1  UNL1       -0.0168
     15 N           0.2627    0.8991    0.8704 N.ar    1  UNL1       -0.2048
     16 C          -1.0376    0.8622    1.1112 C.ar    1  UNL1        0.2293
     17 O          -1.7832    1.8714    1.7731 O.3     1  UNL1       -0.4916
     18 H          -4.2750    1.4245   -0.0052 H       1  UNL1        0.0233
     19 H          -2.8362    1.1551   -1.0111 H       1  UNL1        0.0233
     20 H          -4.5036    1.0261   -1.7942 H       1  UNL1        0.0233
     21 H          -4.9022   -0.9422   -0.2662 H       1  UNL1        0.0326
     22 H          -3.4525   -1.2138   -1.3524 H       1  UNL1        0.0326
     23 H          -3.0205   -1.2767    2.6460 H       1  UNL1        0.1864
     24 H           2.9967    1.7542    0.7596 H       1  UNL1        0.0624
     25 H           5.3317    1.4669    0.1473 H       1  UNL1        0.0619
     26 H           6.0714   -0.5670   -1.0348 H       1  UNL1        0.0646
     27 H           2.0349   -2.0132   -0.9644 H       1  UNL1        0.0653
     28 H          -2.1373    2.6709    1.2721 H       1  UNL1        0.2938
@<TRIPOS>BOND
     1     1     2    1
     2     2     3    1
     3     3     4    2
     4     3     5    1
     5     5     6   ar
     6     6     7   ar
     7     7     8    1
     8     8     9   ar
     9     9    10   ar
    10    10    11   ar
    11    11    12   ar
    12    12    13    1
    13    12    14   ar
    14     7    15   ar
    15    15    16   ar
    16    16    17    1
    17    16     5   ar
    18    14     8   ar
    19     1    18    1
    20     1    19    1
    21     1    20    1
    22     2    21    1
    23     2    22    1
    24     4    23    1
    25     9    24    1
    26    10    25    1
    27    11    26    1
    28    14    27    1
    29    17    28    1
@<TRIPOS>MOLECULE
50934307
 42 45 0 0 0
SMALL
GASTEIGER

@<TRIPOS>ATOM
      1 O           1.2820    0.3056    2.2386 O.2     1  UNL1       -0.2526
      2 C           1.7367    0.1104    1.0693 C.2     1  UNL1        0.3032
      3 N           3.0612    0.4764    0.7364 N.am    1  UNL1       -0.2964
      4 C           3.9632    1.0860    1.6933 C.3     1  UNL1        0.0247
      5 C           5.0278    2.0155    1.2324 C.3     1  UNL1       -0.0328
      6 C           5.3784    0.6578    1.6964 C.3     1  UNL1       -0.0328
      7 N           0.8261   -0.4947    0.1364 N.am    1  UNL1       -0.2742
      8 C           1.3718   -0.6992   -1.1672 C.3     1  UNL1        0.0215
      9 C           0.2983   -1.0524   -2.1477 C.3     1  UNL1       -0.0052
     10 C          -0.3279   -2.2824   -1.5664 C.ar    1  UNL1       -0.0035
     11 S          -0.7346   -3.8801   -2.0473 S.2     1  UNL1       -0.1012
     12 C          -1.4129   -4.4296   -0.5576 C.ar    1  UNL1       -0.0237
     13 C          -1.2992   -3.3488    0.2635 C.ar    1  UNL1       -0.0492
     14 C          -0.7460   -2.2283   -0.2235 C.ar    1  UNL1       -0.0123
     15 C          -0.4930   -0.8690    0.4477 C.3     1  UNL1        0.0787
     16 C          -1.5733    0.0242    0.1692 C.ar    1  UNL1       -0.0225
     17 C          -2.7288   -0.4537   -0.4143 C.ar    1  UNL1       -0.0559
     18 C          -3.7988    0.4096   -0.6952 C.ar    1  UNL1       -0.0498
     19 C          -3.7199    1.7371   -0.3983 C.ar    1  UNL1        0.0548
     20 C          -4.8681    2.6558   -0.7013 C.3     1  UNL1        0.4174
     21 F          -4.8230    3.7384    0.1478 F       1  UNL1       -0.1659
     22 F          -6.0697    1.9724   -0.5900 F       1  UNL1       -0.1659
     23 F          -4.7450    3.0818   -2.0296 F       1  UNL1       -0.1659
     24 C          -2.5664    2.2261    0.1865 C.ar    1  UNL1       -0.0498
     25 C          -1.5345    1.3568    0.4502 C.ar    1  UNL1       -0.0559
     26 H           3.3870    0.2948   -0.2358 H       1  UNL1        0.1505
     27 H           3.5061    1.2327    2.7045 H       1  UNL1        0.0499
     28 H           5.2392    2.8726    1.8908 H       1  UNL1        0.0284
     29 H           5.0923    2.1791    0.1313 H       1  UNL1        0.0284
     30 H           5.9105    0.5917    2.6700 H       1  UNL1        0.0284
     31 H           5.6868   -0.1415    0.9880 H       1  UNL1        0.0284
     32 H           2.1872   -1.4732   -1.1383 H       1  UNL1        0.0469
     33 H           1.8742    0.1977   -1.5903 H       1  UNL1        0.0469
     34 H           0.7735   -1.2618   -3.1147 H       1  UNL1        0.0334
     35 H          -0.3946   -0.2210   -2.2586 H       1  UNL1        0.0334
     36 H          -1.8398   -5.4282   -0.3270 H       1  UNL1        0.0693
     37 H          -1.6803   -3.4610    1.3116 H       1  UNL1        0.0626
     38 H          -0.4963   -1.0921    1.5528 H       1  UNL1        0.0602
     39 H          -2.8734   -1.4687   -0.6770 H       1  UNL1        0.0621
     40 H          -4.7144    0.0392   -1.1560 H       1  UNL1        0.0623
     41 H          -2.5210    3.2919    0.4174 H       1  UNL1        0.0623
     42 H          -0.6415    1.7321    0.9018 H       1  UNL1        0.0621
@<TRIPOS>BOND
     1     1     2    2
     2     2     3   am
     3     3     4    1
     4     4     5    1
     5     5     6    1
     6     2     7   am
     7     7     8    1
     8     8     9    1
     9     9    10    1
    10    10    11   ar
    11    11    12   ar
    12    12    13   ar
    13    13    14   ar
    14    14    15    1
    15    15    16    1
    16    16    17   ar
    17    17    18   ar
    18    18    19   ar
    19    19    20    1
    20    20    21    1
    21    20    22    1
    22    20    23    1
    23    19    24   ar
    24    24    25   ar
    25     6     4    1
    26    15     7    1
    27    25    16   ar
    28    14    10   ar
    29     3    26    1
    30     4    27    1
    31     5    28    1
    32     5    29    1
    33     6    30    1
    34     6    31    1
    35     8    32    1
    36     8    33    1
    37     9    34    1
    38     9    35    1
    39    12    36    1
    40    13    37    1
    41    15    38    1
    42    17    39    1
    43    18    40    1
    44    24    41    1
    45    25    42    1
@<TRIPOS>MOLECULE
51082014
 57 59 0 0 0
SMALL
GASTEIGER

@<TRIPOS>ATOM
      1 C           2.7409   -2.3077   -3.0064 C.3     1  UNL1       -0.0639
      2 C           2.5972   -1.9635   -1.5392 C.3     1  UNL1       -0.0400
      3 C           1.5022   -0.9544   -1.3319 C.3     1  UNL1        0.0150
      4 N           1.3124   -0.5834    0.0407 N.am    1  UNL1       -0.2943
      5 C           0.3989   -1.2989    0.8547 C.2     1  UNL1        0.2504
      6 O           0.2084   -0.9962    2.0770 O.2     1  UNL1       -0.2698
      7 C          -0.4003   -2.4357    0.3744 C.ar    1  UNL1        0.0785
      8 C           0.0682   -3.7298    0.4681 C.ar    1  UNL1       -0.0461
      9 C          -0.7410   -4.7390   -0.0005 C.ar    1  UNL1       -0.0608
     10 C          -1.9882   -4.5047   -0.5536 C.ar    1  UNL1       -0.0583
     11 C          -2.4209   -3.1908   -0.6288 C.ar    1  UNL1       -0.0192
     12 C          -1.6543   -2.1612   -0.1779 C.ar    1  UNL1        0.1331
     13 O          -2.0499   -0.8289   -0.2344 O.3     1  UNL1       -0.4866
     14 C          -3.3231   -0.5758   -0.7975 C.3     1  UNL1        0.1147
     15 C          -3.6557    0.8644   -0.8145 C.ar    1  UNL1       -0.0104
     16 C          -3.3494    1.7087   -1.8626 C.ar    1  UNL1       -0.0554
     17 C          -3.7043    3.0407   -1.7802 C.ar    1  UNL1       -0.0614
     18 C          -4.3563    3.5679   -0.6882 C.ar    1  UNL1       -0.0617
     19 C          -4.6524    2.6961    0.3522 C.ar    1  UNL1       -0.0614
     20 C          -4.3176    1.3596    0.3137 C.ar    1  UNL1       -0.0554
     21 C           2.0523    0.5193    0.5913 C.3     1  UNL1        0.0277
     22 C           2.9564    0.1107    1.7287 C.3     1  UNL1       -0.0342
     23 C           3.2363    1.3311    2.5694 C.3     1  UNL1       -0.0500
     24 C           3.2922    2.5964    1.7315 C.3     1  UNL1       -0.0376
     25 C           1.9197    2.9234    1.2461 C.3     1  UNL1        0.0065
     26 N           1.1983    3.7650    2.2107 N.3     1  UNL1       -0.3272
     27 C           1.1528    1.6161    1.1233 C.3     1  UNL1       -0.0190
     28 H           2.1739   -3.2039   -3.2982 H       1  UNL1        0.0230
     29 H           2.3659   -1.4245   -3.5938 H       1  UNL1        0.0230
     30 H           3.7967   -2.4693   -3.2569 H       1  UNL1        0.0230
     31 H           3.5795   -1.5992   -1.1164 H       1  UNL1        0.0278
     32 H           2.4084   -2.9198   -1.0114 H       1  UNL1        0.0278
     33 H           1.7740   -0.0668   -1.9745 H       1  UNL1        0.0465
     34 H           0.5871   -1.3704   -1.8018 H       1  UNL1        0.0465
     35 H           1.0517   -3.9333    0.9024 H       1  UNL1        0.0626
     36 H          -0.4157   -5.7881    0.0503 H       1  UNL1        0.0618
     37 H          -2.6320   -5.2928   -0.9250 H       1  UNL1        0.0619
     38 H          -3.3950   -2.9343   -1.0539 H       1  UNL1        0.0654
     39 H          -4.1039   -1.1825   -0.2850 H       1  UNL1        0.0748
     40 H          -3.2652   -0.9506   -1.8552 H       1  UNL1        0.0748
     41 H          -2.8380    1.2917   -2.7178 H       1  UNL1        0.0621
     42 H          -3.4467    3.6638   -2.6191 H       1  UNL1        0.0618
     43 H          -4.6400    4.6132   -0.6124 H       1  UNL1        0.0618
     44 H          -5.1706    3.0988    1.2283 H       1  UNL1        0.0618
     45 H          -4.5680    0.7155    1.1481 H       1  UNL1        0.0621
     46 H           2.7042    0.9381   -0.1986 H       1  UNL1        0.0501
     47 H           3.8805   -0.3099    1.2807 H       1  UNL1        0.0283
     48 H           2.5203   -0.6956    2.3495 H       1  UNL1        0.0283
     49 H           2.4333    1.4120    3.3295 H       1  UNL1        0.0266
     50 H           4.2176    1.1747    3.0983 H       1  UNL1        0.0266
     51 H           4.0553    2.5523    0.9548 H       1  UNL1        0.0280
     52 H           3.5852    3.4134    2.4531 H       1  UNL1        0.0280
     53 H           1.9091    3.4901    0.2946 H       1  UNL1        0.0459
     54 H           0.4694    4.3103    1.6987 H       1  UNL1        0.1185
     55 H           1.8547    4.4144    2.7088 H       1  UNL1        0.1185
     56 H           0.7709    1.3878    2.1419 H       1  UNL1        0.0298
     57 H           0.3148    1.8354    0.4126 H       1  UNL1        0.0298
@<TRIPOS>BOND
     1     1     2    1
     2     2     3    1
     3     3     4    1
     4     4     5   am
     5     5     6    2
     6     5     7    1
     7     7     8   ar
     8     8     9   ar
     9     9    10   ar
    10    10    11   ar
    11    11    12   ar
    12    12    13    1
    13    13    14    1
    14    14    15    1
    15    15    16   ar
    16    16    17   ar
    17    17    18   ar
    18    18    19   ar
    19    19    20   ar
    20     4    21    1
    21    21    22    1
    22    22    23    1
    23    23    24    1
    24    24    25    1
    25    25    26    1
    26    25    27    1
    27    12     7   ar
    28    20    15   ar
    29    27    21    1
    30     1    28    1
    31     1    29    1
    32     1    30    1
    33     2    31    1
    34     2    32    1
    35     3    33    1
    36     3    34    1
    37     8    35    1
    38     9    36    1
    39    10    37    1
    40    11    38    1
    41    14    39    1
    42    14    40    1
    43    16    41    1
    44    17    42    1
    45    18    43    1
    46    19    44    1
    47    20    45    1
    48    21    46    1
    49    22    47    1
    50    22    48    1
    51    23    49    1
    52    23    50    1
    53    24    51    1
    54    24    52    1
    55    25    53    1
    56    26    54    1
    57    26    55    1
    58    27    56    1
    59    27    57    1
@<TRIPOS>MOLECULE
16035583
 48 50 0 0 0
SMALL
GASTEIGER

@<TRIPOS>ATOM
      1 N          -2.8097    1.1828    1.7711 N.3     1  UNL1       -0.3285
      2 C          -2.5752    0.8583    0.3542 C.3     1  UNL1        0.0089
      3 C          -1.1403    1.0955   -0.0132 C.3     1  UNL1        0.0277
      4 N          -0.8035    0.7925   -1.3774 N.am    1  UNL1       -0.2914
      5 C          -0.8507    1.7891   -2.4082 C.3     1  UNL1        0.0462
      6 C          -2.1327    1.8010   -3.0739 C.ar    1  UNL1        0.0071
      7 C          -3.2845    2.5019   -2.8859 C.ar    1  UNL1       -0.0500
      8 C          -4.3534    2.3329   -3.6492 C.ar    1  UNL1       -0.0544
      9 C          -4.2486    1.3910   -4.6709 C.ar    1  UNL1       -0.0240
     10 S          -2.5910    0.7703   -4.4977 S.2     1  UNL1       -0.1000
     11 C          -0.3641   -0.5276   -1.7348 C.2     1  UNL1        0.2505
     12 O          -0.0863   -0.7381   -2.9382 O.2     1  UNL1       -0.2698
     13 C          -0.2308   -1.6040   -0.7685 C.ar    1  UNL1        0.0785
     14 C          -1.2548   -2.4685   -0.5249 C.ar    1  UNL1       -0.0461
     15 C          -1.1677   -3.5096    0.3840 C.ar    1  UNL1       -0.0608
     16 C          -0.0012   -3.6716    1.0627 C.ar    1  UNL1       -0.0583
     17 C           1.0634   -2.8142    0.8433 C.ar    1  UNL1       -0.0192
     18 C           0.9815   -1.7789   -0.0581 C.ar    1  UNL1        0.1331
     19 O           1.9797   -0.9255   -0.3066 O.3     1  UNL1       -0.4866
     20 C           3.2510   -0.6809    0.0910 C.3     1  UNL1        0.1147
     21 C           3.5123   -0.3485    1.4949 C.ar    1  UNL1       -0.0104
     22 C           3.3796    0.9683    1.8805 C.ar    1  UNL1       -0.0554
     23 C           3.6133    1.4321    3.1581 C.ar    1  UNL1       -0.0614
     24 C           4.0060    0.5297    4.1231 C.ar    1  UNL1       -0.0617
     25 C           4.1496   -0.8069    3.7686 C.ar    1  UNL1       -0.0614
     26 C           3.9039   -1.2319    2.4678 C.ar    1  UNL1       -0.0554
     27 H          -1.9835    1.7685    2.0662 H       1  UNL1        0.1183
     28 H          -2.7649    0.2977    2.3333 H       1  UNL1        0.1183
     29 H          -2.8337   -0.2017    0.2168 H       1  UNL1        0.0437
     30 H          -3.2593    1.4798   -0.2553 H       1  UNL1        0.0437
     31 H          -0.4341    0.6291    0.7078 H       1  UNL1        0.0477
     32 H          -0.9748    2.2067    0.1414 H       1  UNL1        0.0477
     33 H          -0.0075    1.6053   -3.1284 H       1  UNL1        0.0519
     34 H          -0.6564    2.8331   -2.0284 H       1  UNL1        0.0519
     35 H          -3.2725    3.2482   -2.0243 H       1  UNL1        0.0626
     36 H          -5.3112    2.8878   -3.5256 H       1  UNL1        0.0623
     37 H          -5.0315    1.0726   -5.4516 H       1  UNL1        0.0693
     38 H          -2.1886   -2.3543   -1.0559 H       1  UNL1        0.0626
     39 H          -2.0002   -4.1776    0.5529 H       1  UNL1        0.0618
     40 H           0.0588   -4.4980    1.7816 H       1  UNL1        0.0619
     41 H           1.9391   -3.0060    1.4043 H       1  UNL1        0.0654
     42 H           3.8623   -1.6170   -0.1122 H       1  UNL1        0.0748
     43 H           3.6797    0.1660   -0.5089 H       1  UNL1        0.0748
     44 H           3.0705    1.7308    1.1584 H       1  UNL1        0.0621
     45 H           3.4915    2.4797    3.3960 H       1  UNL1        0.0618
     46 H           4.1871    0.9029    5.1206 H       1  UNL1        0.0618
     47 H           4.4566   -1.5246    4.5143 H       1  UNL1        0.0618
     48 H           4.0268   -2.2681    2.2053 H       1  UNL1        0.0621
@<TRIPOS>BOND
     1     1     2    1
     2     2     3    1
     3     3     4    1
     4     4     5    1
     5     5     6    1
     6     6     7   ar
     7     7     8   ar
     8     8     9   ar
     9     9    10   ar
    10     4    11   am
    11    11    12    2
    12    11    13    1
    13    13    14   ar
    14    14    15   ar
    15    15    16   ar
    16    16    17   ar
    17    17    18   ar
    18    18    19    1
    19    19    20    1
    20    20    21    1
    21    21    22   ar
    22    22    23   ar
    23    23    24   ar
    24    24    25   ar
    25    25    26   ar
    26    10     6   ar
    27    18    13   ar
    28    26    21   ar
    29     1    27    1
    30     1    28    1
    31     2    29    1
    32     2    30    1
    33     3    31    1
    34     3    32    1
    35     5    33    1
    36     5    34    1
    37     7    35    1
    38     8    36    1
    39     9    37    1
    40    14    38    1
    41    15    39    1
    42    16    40    1
    43    17    41    1
    44    20    42    1
    45    20    43    1
    46    22    44    1
    47    23    45    1
    48    24    46    1
    49    25    47    1
    50    26    48    1
@<TRIPOS>MOLECULE
50934302
 42 44 0 0 0
SMALL
GASTEIGER

@<TRIPOS>ATOM
      1 C           3.0614   -1.1743   -1.2053 C.3     1  UNL1       -0.0544
      2 C           2.2920   -1.7804   -0.0699 C.3     1  UNL1        0.0302
      3 C           3.1247   -2.8756    0.5711 C.3     1  UNL1       -0.0544
      4 C           1.9292   -0.8109    0.9841 C.2     1  UNL1        0.2189
      5 O           2.4575   -0.8974    2.1504 O.2     1  UNL1       -0.2753
      6 N           1.0056    0.2326    0.7654 N.am    1  UNL1       -0.2898
      7 C           0.7279    1.1808    1.8491 C.3     1  UNL1        0.0201
      8 C           1.2739    2.4886    1.3633 C.3     1  UNL1       -0.0052
      9 C           0.9115    2.6689   -0.0507 C.ar    1  UNL1       -0.0035
     10 S           0.9682    4.2057   -0.9368 S.2     1  UNL1       -0.1012
     11 C           0.4096    3.5320   -2.4968 C.ar    1  UNL1       -0.0237
     12 C           0.2252    2.2085   -2.2281 C.ar    1  UNL1       -0.0492
     13 C           0.4917    1.8054   -0.9678 C.ar    1  UNL1       -0.0124
     14 C           0.3394    0.3524   -0.4945 C.3     1  UNL1        0.0772
     15 C          -1.0853    0.0230   -0.2696 C.ar    1  UNL1       -0.0226
     16 C          -1.3283   -1.1055    0.5084 C.ar    1  UNL1       -0.0559
     17 C          -2.6086   -1.5211    0.7937 C.ar    1  UNL1       -0.0498
     18 C          -3.6953   -0.8242    0.3120 C.ar    1  UNL1        0.0548
     19 C          -5.0744   -1.2742    0.6210 C.3     1  UNL1        0.4174
     20 F          -5.7076   -1.6172   -0.5586 F       1  UNL1       -0.1659
     21 F          -5.0295   -2.4106    1.4043 F       1  UNL1       -0.1659
     22 F          -5.8169   -0.2955    1.2508 F       1  UNL1       -0.1659
     23 C          -3.4284    0.2850   -0.4525 C.ar    1  UNL1       -0.0498
     24 C          -2.1553    0.7187   -0.7503 C.ar    1  UNL1       -0.0559
     25 H           3.0947   -0.0762   -1.1248 H       1  UNL1        0.0237
     26 H           4.1174   -1.5334   -1.1546 H       1  UNL1        0.0237
     27 H           2.6199   -1.4493   -2.1640 H       1  UNL1        0.0237
     28 H           1.3648   -2.2662   -0.4623 H       1  UNL1        0.0389
     29 H           2.4382   -3.6428    1.0082 H       1  UNL1        0.0237
     30 H           3.7396   -2.3971    1.3614 H       1  UNL1        0.0237
     31 H           3.7574   -3.3440   -0.2299 H       1  UNL1        0.0237
     32 H          -0.3440    1.2854    2.0382 H       1  UNL1        0.0468
     33 H           1.2254    0.8569    2.7682 H       1  UNL1        0.0468
     34 H           2.3860    2.4301    1.5105 H       1  UNL1        0.0334
     35 H           0.8974    3.3556    1.9498 H       1  UNL1        0.0334
     36 H           0.2669    4.1116   -3.4307 H       1  UNL1        0.0693
     37 H          -0.1317    1.5671   -3.0746 H       1  UNL1        0.0626
     38 H           0.7479   -0.3548   -1.2134 H       1  UNL1        0.0601
     39 H          -0.5094   -1.6951    0.9164 H       1  UNL1        0.0621
     40 H          -2.7410   -2.4221    1.4148 H       1  UNL1        0.0623
     41 H          -4.2522    0.8624   -0.8514 H       1  UNL1        0.0623
     42 H          -1.9655    1.5972   -1.3547 H       1  UNL1        0.0621
@<TRIPOS>BOND
     1     1     2    1
     2     2     3    1
     3     2     4    1
     4     4     5    2
     5     4     6   am
     6     6     7    1
     7     7     8    1
     8     8     9    1
     9     9    10   ar
    10    10    11   ar
    11    11    12   ar
    12    12    13   ar
    13    13    14    1
    14    14    15    1
    15    15    16   ar
    16    16    17   ar
    17    17    18   ar
    18    18    19    1
    19    19    20    1
    20    19    21    1
    21    19    22    1
    22    18    23   ar
    23    23    24   ar
    24    14     6    1
    25    24    15   ar
    26    13     9   ar
    27     1    25    1
    28     1    26    1
    29     1    27    1
    30     2    28    1
    31     3    29    1
    32     3    30    1
    33     3    31    1
    34     7    32    1
    35     7    33    1
    36     8    34    1
    37     8    35    1
    38    11    36    1
    39    12    37    1
    40    14    38    1
    41    16    39    1
    42    17    40    1
    43    23    41    1
    44    24    42    1
@<TRIPOS>MOLECULE
51345611
 57 61 0 0 0
SMALL
GASTEIGER

@<TRIPOS>ATOM
      1 C          -2.6513   -3.9362    1.6620 C.3     2  UNK2       -0.0626
      2 C          -2.7272   -2.7881    0.6395 C.3     2  UNK2       -0.0447
      3 C          -2.9845   -3.4781   -0.6889 C.3     2  UNK2       -0.0626
      4 C          -1.4753   -1.9927    0.6440 C.3     2  UNK2       -0.0264
      5 C          -1.3805   -0.8543   -0.2772 C.3     2  UNK2        0.0674
      6 C          -2.3288    0.2558   -0.1227 C.ar    2  UNK2        0.0410
      7 N          -3.3756    0.5279    0.6480 N.ar    2  UNK2       -0.3562
      8 C          -3.8544    1.7507    0.3296 C.ar    2  UNK2        0.0470
      9 C          -4.9057    2.4930    0.8162 C.ar    2  UNK2       -0.0378
     10 C          -5.1845    3.7335    0.3083 C.ar    2  UNK2       -0.0598
     11 C          -4.4243    4.2780   -0.7037 C.ar    2  UNK2       -0.0611
     12 C          -3.3799    3.5159   -1.1721 C.ar    2  UNK2       -0.0523
     13 C          -3.0686    2.2584   -0.6828 C.ar    2  UNK2        0.0032
     14 C          -2.0988    1.3372   -0.9875 C.ar    2  UNK2       -0.0151
     15 C          -1.0078    1.3460   -1.9567 C.3     2  UNK2        0.0019
     16 C           0.1738    0.4905   -1.6384 C.3     2  UNK2        0.1069
     17 C           1.4314    1.2840   -1.5259 C.2     2  UNK2        0.2345
     18 O           1.4404    2.4591   -1.9480 O.2     2  UNK2       -0.2737
     19 N           2.5844    0.6808   -0.9420 N.am    1  PHE1       -0.3021
     20 CA          2.3704   -0.2502    0.1448 C.3     1  PHE1        0.1036
     21 CB          3.2607    0.1629    1.2950 C.3     1  PHE1       -0.0007
     22 CG          4.6633    0.1232    0.8550 C.ar    1  PHE1       -0.0451
     23 CD1         5.3664   -1.0539    0.9569 C.ar    1  PHE1       -0.0585
     24 CE1         6.7020   -1.1434    0.5656 C.ar    1  PHE1       -0.0615
     25 CZ          7.3136   -0.0338    0.0731 C.ar    1  PHE1       -0.0617
     26 CE2         6.6541    1.1543   -0.0452 C.ar    1  PHE1       -0.0615
     27 CD2         5.3150    1.2246    0.3524 C.ar    1  PHE1       -0.0585
     28 C           0.9497   -0.3178    0.5467 C.2     1  PHE1        0.2374
     29 O           0.6457   -0.4430    1.7680 O.2     1  PHE1       -0.2735
     30 N          -0.0759   -0.2440   -0.4201 N.am    2  UNK2       -0.2796
     31 H          -2.7321   -3.5736    2.6883 H       2  UNK2        0.0232
     32 H          -1.7166   -4.5036    1.5410 H       2  UNK2        0.0232
     33 H          -3.4893   -4.6384    1.4234 H       2  UNK2        0.0232
     34 H          -3.6547   -2.2587    0.8897 H       2  UNK2        0.0296
     35 H          -3.1639   -2.7655   -1.5101 H       2  UNK2        0.0232
     36 H          -3.9157   -4.0697   -0.5610 H       2  UNK2        0.0232
     37 H          -2.1801   -4.2190   -0.9205 H       2  UNK2        0.0232
     38 H          -0.6305   -2.7114    0.5001 H       2  UNK2        0.0289
     39 H          -1.3416   -1.6262    1.7096 H       2  UNK2        0.0289
     40 H          -1.5782   -1.2633   -1.3430 H       2  UNK2        0.0565
     41 H          -3.8166   -0.0353    1.3990 H       2  UNK2        0.1657
     42 H          -5.5111    2.0691    1.6162 H       2  UNK2        0.0638
     43 H          -6.0247    4.3183    0.7023 H       2  UNK2        0.0618
     44 H          -4.6573    5.2594   -1.0945 H       2  UNK2        0.0618
     45 H          -2.7689    3.9095   -1.9587 H       2  UNK2        0.0624
     46 H          -0.6697    2.4258   -2.0436 H       2  UNK2        0.0337
     47 H          -1.3620    1.0600   -2.9936 H       2  UNK2        0.0337
     48 H           0.3126   -0.2915   -2.4441 H       2  UNK2        0.0600
     49 H           3.5504    0.9124   -1.3021 H       1  PHE1        0.1495
     50 HA          2.7466   -1.2665   -0.1824 H       1  PHE1        0.0598
     51 HB1         3.0913   -0.4998    2.1903 H       1  PHE1        0.0336
     52 HB2         3.0494    1.2040    1.6211 H       1  PHE1        0.0336
     53 HD1         4.8963   -1.9535    1.3482 H       1  PHE1        0.0620
     54 HE1         7.2338   -2.0891    0.6578 H       1  PHE1        0.0618
     55 HZ          8.3655   -0.1245   -0.2295 H       1  PHE1        0.0618
     56 HE2         7.1826    2.0019   -0.4405 H       1  PHE1        0.0618
     57 HD2         4.8365    2.1886    0.2426 H       1  PHE1        0.0620
@<TRIPOS>BOND
     1     1     2    1
     2     2     3    1
     3     2     4    1
     4     4     5    1
     5     5     6    1
     6     6     7   ar
     7     7     8   ar
     8     8     9   ar
     9     9    10   ar
    10    10    11   ar
    11    11    12   ar
    12    12    13   ar
    13    13    14   ar
    14    14    15    1
    15    15    16    1
    16    16    17    1
    17    17    18    2
    18    17    19   am
    19    19    20    1
    20    20    21    1
    21    21    22    1
    22    22    23   ar
    23    23    24   ar
    24    24    25   ar
    25    25    26   ar
    26    26    27   ar
    27    20    28    1
    28    28    29    2
    29    28    30   am
    30    30     5    1
    31    14     6   ar
    32    30    16    1
    33    13     8   ar
    34    27    22   ar
    35     1    31    1
    36     1    32    1
    37     1    33    1
    38     2    34    1
    39     3    35    1
    40     3    36    1
    41     3    37    1
    42     4    38    1
    43     4    39    1
    44     5    40    1
    45     7    41    1
    46     9    42    1
    47    10    43    1
    48    11    44    1
    49    12    45    1
    50    15    46    1
    51    15    47    1
    52    16    48    1
    53    19    49    1
    54    20    50    1
    55    21    51    1
    56    21    52    1
    57    23    53    1
    58    24    54    1
    59    25    55    1
    60    26    56    1
    61    27    57    1
@<TRIPOS>MOLECULE
2744173
 28 29 0 0 0
SMALL
GASTEIGER

@<TRIPOS>ATOM
      1 C           5.3574    0.7111    0.0995 C.3     1  UNL1       -0.0306
      2 C           4.8741   -0.7058   -0.1765 C.3     1  UNL1        0.0900
      3 O           3.4946   -0.6508   -0.3759 O.3     1  UNL1       -0.4610
      4 C           2.6103   -0.1934    0.5709 C.2     1  UNL1        0.3512
      5 O           3.0250    0.1999    1.6740 O.2     1  UNL1       -0.2442
      6 C           1.1934   -0.2021    0.2003 C.ar    1  UNL1        0.1593
      7 S          -0.2147    0.2920    1.1118 S.2     1  UNL1       -0.0569
      8 C          -1.4196   -0.1378   -0.2786 C.ar    1  UNL1        0.1129
      9 C          -2.8617    0.1205    0.0244 C.ar    1  UNL1        0.0086
     10 C          -3.7444   -0.1850   -0.9704 C.ar    1  UNL1       -0.0520
     11 C          -5.1200    0.0215   -0.7830 C.ar    1  UNL1       -0.0597
     12 C          -5.5573    0.5429    0.4367 C.ar    1  UNL1       -0.0434
     13 C          -4.6646    0.8504    1.4389 C.ar    1  UNL1        0.0416
     14 CL         -5.2679    1.4998    2.9436 Cl      1  UNL1       -0.0835
     15 C          -3.3200    0.6279    1.2032 C.ar    1  UNL1       -0.0337
     16 N          -0.6733   -0.5159   -1.0576 N.ar    1  UNL1       -0.2046
     17 C           0.6295   -0.6258   -1.0169 C.ar    1  UNL1        0.2346
     18 O           1.4023   -1.1252   -2.0981 O.3     1  UNL1       -0.4915
     19 H           5.7025    0.7742    1.1425 H       1  UNL1        0.0262
     20 H           6.1750    0.9925   -0.5940 H       1  UNL1        0.0262
     21 H           4.5455    1.4596   -0.0767 H       1  UNL1        0.0262
     22 H           5.1810   -1.4096    0.6270 H       1  UNL1        0.0695
     23 H           5.3356   -1.0772   -1.1253 H       1  UNL1        0.0695
     24 H          -3.4410   -0.5895   -1.9255 H       1  UNL1        0.0624
     25 H          -5.8511   -0.2031   -1.5347 H       1  UNL1        0.0618
     26 H          -6.6209    0.7042    0.5857 H       1  UNL1        0.0632
     27 H          -2.6105    0.8646    1.9802 H       1  UNL1        0.0639
     28 H           1.8409   -2.0399   -2.0253 H       1  UNL1        0.2938
@<TRIPOS>BOND
     1     1     2    1
     2     2     3    1
     3     3     4    1
     4     4     5    2
     5     4     6    1
     6     6     7   ar
     7     7     8   ar
     8     8     9    1
     9     9    10   ar
    10    10    11   ar
    11    11    12   ar
    12    12    13   ar
    13    13    14    1
    14    13    15   ar
    15     8    16   ar
    16    16    17   ar
    17    17    18    1
    18    17     6   ar
    19    15     9   ar
    20     1    19    1
    21     1    20    1
    22     1    21    1
    23     2    22    1
    24     2    23    1
    25    10    24    1
    26    11    25    1
    27    12    26    1
    28    15    27    1
    29    18    28    1
@<TRIPOS>MOLECULE
50934297
 42 45 0 0 0
SMALL
GASTEIGER

@<TRIPOS>ATOM
      1 O           0.7671    1.8183   -0.2973 O.2     1  UNL1       -0.2523
      2 C           0.9824    0.6139   -0.0568 C.2     1  UNL1        0.3072
      3 N           2.2338    0.0423   -0.3023 N.am    1  UNL1       -0.2693
      4 C           3.3595    0.7194   -0.8265 C.ar    1  UNL1        0.0348
      5 C           3.4237    2.0379   -1.1716 C.ar    1  UNL1       -0.0404
      6 C           4.5990    2.6183   -1.6888 C.ar    1  UNL1       -0.0600
      7 C           5.7456    1.8887   -1.8740 C.ar    1  UNL1       -0.0616
      8 C           5.6931    0.5576   -1.5296 C.ar    1  UNL1       -0.0600
      9 C           4.5455   -0.0042   -1.0259 C.ar    1  UNL1       -0.0404
     10 N          -0.0659   -0.2241    0.4857 N.am    1  UNL1       -0.2740
     11 C           0.2288   -1.6103    0.7498 C.3     1  UNL1        0.0215
     12 C          -0.9460   -2.3298    1.3539 C.3     1  UNL1       -0.0052
     13 C          -1.5465   -1.4104    2.3680 C.ar    1  UNL1       -0.0035
     14 S          -2.1199   -1.6415    4.0040 S.2     1  UNL1       -0.1012
     15 C          -2.6200    0.0288    4.2908 C.ar    1  UNL1       -0.0237
     16 C          -2.3113    0.6539    3.1055 C.ar    1  UNL1       -0.0492
     17 C          -1.7639   -0.0841    2.1275 C.ar    1  UNL1       -0.0123
     18 C          -1.3357    0.3792    0.7260 C.3     1  UNL1        0.0788
     19 C          -2.3775   -0.0053   -0.2557 C.ar    1  UNL1       -0.0198
     20 C          -2.0778   -0.0315   -1.6058 C.ar    1  UNL1       -0.0563
     21 C          -2.9949   -0.3789   -2.5710 C.ar    1  UNL1       -0.0587
     22 C          -4.2660   -0.7159   -2.1853 C.ar    1  UNL1       -0.0264
     23 C          -4.5934   -0.6979   -0.8381 C.ar    1  UNL1        0.1237
     24 F          -5.8630   -1.0378   -0.4972 F       1  UNL1       -0.2055
     25 C          -3.6590   -0.3467    0.1116 C.ar    1  UNL1       -0.0212
     26 H           2.3439   -1.0070   -0.0700 H       1  UNL1        0.1564
     27 H           2.5612    2.6669   -1.0517 H       1  UNL1        0.0636
     28 H           4.5907    3.6844   -1.9488 H       1  UNL1        0.0618
     29 H           6.6392    2.3482   -2.2717 H       1  UNL1        0.0618
     30 H           6.5925   -0.0307   -1.6714 H       1  UNL1        0.0618
     31 H           4.5290   -1.0576   -0.7619 H       1  UNL1        0.0636
     32 H           1.0803   -1.7115    1.4506 H       1  UNL1        0.0469
     33 H           0.5121   -2.1177   -0.1934 H       1  UNL1        0.0469
     34 H          -1.6722   -2.5445    0.5273 H       1  UNL1        0.0334
     35 H          -0.6830   -3.2496    1.8752 H       1  UNL1        0.0334
     36 H          -3.0696    0.4459    5.2080 H       1  UNL1        0.0693
     37 H          -2.5324    1.7392    3.0209 H       1  UNL1        0.0626
     38 H          -1.2355    1.4759    0.6988 H       1  UNL1        0.0602
     39 H          -1.0744    0.2299   -1.9660 H       1  UNL1        0.0621
     40 H          -2.7297   -0.3919   -3.6404 H       1  UNL1        0.0619
     41 H          -4.9654   -0.9844   -2.9616 H       1  UNL1        0.0646
     42 H          -3.9246   -0.3355    1.1592 H       1  UNL1        0.0650
@<TRIPOS>BOND
     1     1     2    2
     2     2     3   am
     3     3     4    1
     4     4     5   ar
     5     5     6   ar
     6     6     7   ar
     7     7     8   ar
     8     8     9   ar
     9     2    10   am
    10    10    11    1
    11    11    12    1
    12    12    13    1
    13    13    14   ar
    14    14    15   ar
    15    15    16   ar
    16    16    17   ar
    17    17    18    1
    18    18    19    1
    19    19    20   ar
    20    20    21   ar
    21    21    22   ar
    22    22    23   ar
    23    23    24    1
    24    23    25   ar
    25     9     4   ar
    26    18    10    1
    27    25    19   ar
    28    17    13   ar
    29     3    26    1
    30     5    27    1
    31     6    28    1
    32     7    29    1
    33     8    30    1
    34     9    31    1
    35    11    32    1
    36    11    33    1
    37    12    34    1
    38    12    35    1
    39    15    36    1
    40    16    37    1
    41    18    38    1
    42    20    39    1
    43    21    40    1
    44    22    41    1
    45    25    42    1
@<TRIPOS>MOLECULE
1060766
 29 30 0 0 0
SMALL
GASTEIGER

@<TRIPOS>ATOM
      1 C          -3.5118   -1.2412    1.1036 C.3     1  UNL1       -0.0597
      2 C          -3.5534    0.2826    1.2075 C.3     1  UNL1       -0.0088
      3 C          -2.8699    0.8483    0.0328 C.2     1  UNL1        0.0985
      4 N          -3.5405    1.6216   -0.7565 N.2     1  UNL1       -0.0908
      5 O          -4.8630    1.9334   -0.5393 O.2     1  UNL1       -0.4090
      6 C          -1.4829    0.5636   -0.2553 C.ar    1  UNL1        0.0998
      7 S          -0.0876    0.5995    0.8661 S.2     1  UNL1       -0.0620
      8 C           1.1332    0.1210   -0.3855 C.ar    1  UNL1        0.1128
      9 C           2.5624   -0.0302   -0.0602 C.ar    1  UNL1        0.0100
     10 C           3.0697    0.1776    1.2004 C.ar    1  UNL1       -0.0519
     11 C           4.4319    0.0154    1.4315 C.ar    1  UNL1       -0.0584
     12 C           5.2871   -0.3519    0.4138 C.ar    1  UNL1       -0.0264
     13 C           4.7810   -0.5610   -0.8516 C.ar    1  UNL1        0.1240
     14 F           5.6078   -0.9210   -1.8567 F       1  UNL1       -0.2055
     15 C           3.4050   -0.3947   -1.0740 C.ar    1  UNL1       -0.0168
     16 N           0.4260    0.0056   -1.3791 N.ar    1  UNL1       -0.2048
     17 C          -0.8633    0.1973   -1.4307 C.ar    1  UNL1        0.2294
     18 O          -1.5905    0.0316   -2.6586 O.3     1  UNL1       -0.4916
     19 H          -2.8395   -1.6695    1.8969 H       1  UNL1        0.0233
     20 H          -4.5036   -1.6950    1.2888 H       1  UNL1        0.0233
     21 H          -3.0682   -1.5675    0.1380 H       1  UNL1        0.0233
     22 H          -3.1154    0.6130    2.1593 H       1  UNL1        0.0327
     23 H          -4.6246    0.5522    1.1593 H       1  UNL1        0.0327
     24 H          -5.4397    2.0566   -1.3665 H       1  UNL1        0.3278
     25 H           2.4064    0.4657    2.0037 H       1  UNL1        0.0624
     26 H           4.8562    0.1722    2.4112 H       1  UNL1        0.0619
     27 H           6.3440   -0.4769    0.5968 H       1  UNL1        0.0646
     28 H           3.0122   -0.5576   -2.0589 H       1  UNL1        0.0653
     29 H          -1.3689   -0.7908   -3.2380 H       1  UNL1        0.2938
@<TRIPOS>BOND
     1     1     2    1
     2     2     3    1
     3     3     4    2
     4     4     5    1
     5     3     6    1
     6     6     7   ar
     7     7     8   ar
     8     8     9    1
     9     9    10   ar
    10    10    11   ar
    11    11    12   ar
    12    12    13   ar
    13    13    14    1
    14    13    15   ar
    15     8    16   ar
    16    16    17   ar
    17    17    18    1
    18    17     6   ar
    19    15     9   ar
    20     1    19    1
    21     1    20    1
    22     1    21    1
    23     2    22    1
    24     2    23    1
    25     5    24    1
    26    10    25    1
    27    11    26    1
    28    12    27    1
    29    15    28    1
    30    18    29    1
@<TRIPOS>MOLECULE
CHEMBL2442033
 58 61 0 0 0
SMALL
GASTEIGER

@<TRIPOS>ATOM
      1 N          -2.1162   -1.1523    2.3023 N.3     1  UNL1       -0.3272
      2 C          -2.7543   -1.4163    1.0119 C.3     1  UNL1        0.0065
      3 C          -4.1352   -0.8692    0.9279 C.3     1  UNL1       -0.0376
      4 C          -4.2572    0.5130    0.3716 C.3     1  UNL1       -0.0500
      5 C          -2.8280    1.0841    0.3051 C.3     1  UNL1       -0.0342
      6 C          -2.1151    0.2841   -0.7205 C.3     1  UNL1        0.0280
      7 N          -1.0574    0.9052   -1.4309 N.am    1  UNL1       -0.2913
      8 C           0.0962    1.3993   -0.8118 C.2     1  UNL1        0.2506
      9 O           0.9708    1.9509   -1.5999 O.2     1  UNL1       -0.2698
     10 C           0.5008    1.4139    0.5679 C.ar    1  UNL1        0.0785
     11 C           0.0898    2.3889    1.4201 C.ar    1  UNL1       -0.0461
     12 C           0.4249    2.4756    2.7510 C.ar    1  UNL1       -0.0608
     13 C           1.2485    1.4642    3.2090 C.ar    1  UNL1       -0.0583
     14 C           1.6919    0.4550    2.3865 C.ar    1  UNL1       -0.0192
     15 C           1.3379    0.3999    1.0609 C.ar    1  UNL1        0.1331
     16 O           1.7688   -0.5834    0.2469 O.3     1  UNL1       -0.4866
     17 C           2.5255   -1.6886    0.2217 C.3     1  UNL1        0.1147
     18 C           3.9715   -1.5721    0.5212 C.ar    1  UNL1       -0.0104
     19 C           4.4637   -1.8294    1.7637 C.ar    1  UNL1       -0.0554
     20 C           5.8344   -1.7031    2.0177 C.ar    1  UNL1       -0.0614
     21 C           6.7069   -1.3221    1.0349 C.ar    1  UNL1       -0.0617
     22 C           6.2254   -1.0601   -0.2210 C.ar    1  UNL1       -0.0614
     23 C           4.8782   -1.1843   -0.4697 C.ar    1  UNL1       -0.0554
     24 C          -1.1288    1.0607   -2.8884 C.3     1  UNL1        0.0266
     25 C          -1.5379   -0.1154   -3.6748 C.3     1  UNL1       -0.0342
     26 C          -2.6392    0.7466   -4.3022 C.3     1  UNL1       -0.0497
     27 C          -2.4070    1.7978   -3.2382 C.3     1  UNL1       -0.0342
     28 C          -1.8538   -1.0804   -0.1487 C.3     1  UNL1       -0.0190
     29 H          -2.7268   -0.7037    2.9884 H       1  UNL1        0.1185
     30 H          -1.1465   -0.8369    2.2344 H       1  UNL1        0.1185
     31 H          -2.8651   -2.5432    1.0119 H       1  UNL1        0.0459
     32 H          -4.8536   -1.5859    0.4300 H       1  UNL1        0.0280
     33 H          -4.5259   -0.8163    1.9878 H       1  UNL1        0.0280
     34 H          -4.5994    0.4029   -0.6980 H       1  UNL1        0.0266
     35 H          -4.9240    1.1803    0.9277 H       1  UNL1        0.0266
     36 H          -2.3931    1.0016    1.3397 H       1  UNL1        0.0283
     37 H          -2.9305    2.1455    0.0975 H       1  UNL1        0.0283
     38 H          -2.9154    0.0462   -1.5216 H       1  UNL1        0.0501
     39 H          -0.5685    3.1964    1.0525 H       1  UNL1        0.0626
     40 H           0.0843    3.2596    3.4021 H       1  UNL1        0.0618
     41 H           1.5391    1.4919    4.2548 H       1  UNL1        0.0619
     42 H           2.3403   -0.3334    2.8064 H       1  UNL1        0.0654
     43 H           2.1036   -2.5641    0.8159 H       1  UNL1        0.0748
     44 H           2.4862   -2.1161   -0.8431 H       1  UNL1        0.0748
     45 H           3.8518   -2.1407    2.5975 H       1  UNL1        0.0621
     46 H           6.2050   -1.9157    3.0262 H       1  UNL1        0.0618
     47 H           7.7866   -1.2203    1.2261 H       1  UNL1        0.0618
     48 H           6.9412   -0.7619   -0.9731 H       1  UNL1        0.0618
     49 H           4.5395   -0.9683   -1.4738 H       1  UNL1        0.0621
     50 H          -0.2533    1.5561   -3.3529 H       1  UNL1        0.0501
     51 H          -1.9046   -1.0105   -3.1548 H       1  UNL1        0.0283
     52 H          -0.8536   -0.4448   -4.4994 H       1  UNL1        0.0283
     53 H          -3.6196    0.2626   -4.1246 H       1  UNL1        0.0266
     54 H          -2.4516    1.0581   -5.3323 H       1  UNL1        0.0266
     55 H          -2.2504    2.8155   -3.6500 H       1  UNL1        0.0283
     56 H          -3.1706    1.8424   -2.4453 H       1  UNL1        0.0283
     57 H          -1.9915   -1.8931   -0.9260 H       1  UNL1        0.0298
     58 H          -0.8386   -1.1661    0.1814 H       1  UNL1        0.0298
@<TRIPOS>BOND
     1     1     2    1
     2     2     3    1
     3     3     4    1
     4     4     5    1
     5     5     6    1
     6     6     7    1
     7     7     8   am
     8     8     9    2
     9     8    10    1
    10    10    11   ar
    11    11    12   ar
    12    12    13   ar
    13    13    14   ar
    14    14    15   ar
    15    15    16    1
    16    16    17    1
    17    17    18    1
    18    18    19   ar
    19    19    20   ar
    20    20    21   ar
    21    21    22   ar
    22    22    23   ar
    23     7    24    1
    24    24    25    1
    25    25    26    1
    26    26    27    1
    27     6    28    1
    28    28     2    1
    29    15    10   ar
    30    23    18   ar
    31    27    24    1
    32     1    29    1
    33     1    30    1
    34     2    31    1
    35     3    32    1
    36     3    33    1
    37     4    34    1
    38     4    35    1
    39     5    36    1
    40     5    37    1
    41     6    38    1
    42    11    39    1
    43    12    40    1
    44    13    41    1
    45    14    42    1
    46    17    43    1
    47    17    44    1
    48    19    45    1
    49    20    46    1
    50    21    47    1
    51    22    48    1
    52    23    49    1
    53    24    50    1
    54    25    51    1
    55    25    52    1
    56    26    53    1
    57    26    54    1
    58    27    55    1
    59    27    56    1
    60    28    57    1
    61    28    58    1
@<TRIPOS>MOLECULE
171352499
 29 31 0 0 0
SMALL
GASTEIGER

@<TRIPOS>ATOM
      1 C          -5.5915    0.3232    1.4669 C.3     1  UNL1       -0.0438
      2 C          -5.2473    0.2392   -0.0014 C.3     1  UNL1        0.0600
      3 N          -3.9141   -0.3377   -0.2017 N.ar    1  UNL1       -0.1631
      4 N          -3.6884   -1.6439   -0.3491 N.ar    1  UNL1       -0.0458
      5 N          -2.3785   -1.7817   -0.5056 N.ar    1  UNL1       -0.1071
      6 C          -1.7846   -0.5784   -0.4576 C.ar    1  UNL1        0.2163
      7 C          -0.3473   -0.3805   -0.5964 C.ar    1  UNL1        0.1230
      8 S           0.8598   -0.1896    0.6371 S.2     1  UNL1       -0.0601
      9 C           2.2688   -0.0150   -0.5561 C.ar    1  UNL1        0.1142
     10 C           3.6349    0.1845   -0.0637 C.ar    1  UNL1        0.0253
     11 C           3.9463    0.2524    1.2753 C.ar    1  UNL1       -0.0492
     12 C           5.2721    0.4448    1.6859 C.ar    1  UNL1       -0.0430
     13 C           6.2854    0.5690    0.7590 C.ar    1  UNL1        0.0276
     14 N           5.9497    0.4984   -0.5412 N.ar    1  UNL1       -0.2626
     15 C           4.6624    0.3112   -0.9639 C.ar    1  UNL1        0.0372
     16 N           1.6720   -0.1174   -1.6084 N.ar    1  UNL1       -0.2047
     17 C           0.3989   -0.2978   -1.7618 C.ar    1  UNL1        0.2313
     18 O          -0.2380   -0.4095   -3.0146 O.3     1  UNL1       -0.4915
     19 N          -2.7640    0.3156   -0.2663 N.ar    1  UNL1       -0.1297
     20 H          -5.2720   -0.5502    2.0369 H       1  UNL1        0.0248
     21 H          -6.7092    0.4001    1.5279 H       1  UNL1        0.0248
     22 H          -5.1759    1.2821    1.8686 H       1  UNL1        0.0248
     23 H          -5.2442    1.2431   -0.4608 H       1  UNL1        0.0524
     24 H          -5.9506   -0.3862   -0.5710 H       1  UNL1        0.0524
     25 H           3.1473    0.1546    2.0132 H       1  UNL1        0.0625
     26 H           5.5096    0.4973    2.7426 H       1  UNL1        0.0633
     27 H           7.3217    0.7192    1.0688 H       1  UNL1        0.0829
     28 H           4.4100    0.2568   -2.0150 H       1  UNL1        0.0836
     29 H          -1.0335   -1.0038   -3.1489 H       1  UNL1        0.2938
@<TRIPOS>BOND
     1     1     2    1
     2     2     3    1
     3     3     4   ar
     4     4     5   ar
     5     5     6   ar
     6     6     7    1
     7     7     8   ar
     8     8     9   ar
     9     9    10    1
    10    10    11   ar
    11    11    12   ar
    12    12    13   ar
    13    13    14   ar
    14    14    15   ar
    15     9    16   ar
    16    16    17   ar
    17    17    18    1
    18     6    19   ar
    19    19     3   ar
    20    17     7   ar
    21    15    10   ar
    22     1    20    1
    23     1    21    1
    24     1    22    1
    25     2    23    1
    26     2    24    1
    27    11    25    1
    28    12    26    1
    29    13    27    1
    30    15    28    1
    31    18    29    1
@<TRIPOS>MOLECULE
51078692
 33 35 0 0 0
SMALL
GASTEIGER

@<TRIPOS>ATOM
      1 C           3.5939   -1.7969    2.2499 C.3     1  UNL1       -0.0397
      2 C           2.9550   -0.9388    1.2020 C.ar    1  UNL1       -0.0495
      3 C           3.6851   -0.1755    0.3183 C.ar    1  UNL1       -0.0551
      4 C           3.0189    0.6022   -0.6313 C.ar    1  UNL1       -0.0355
      5 C           3.8572    1.3940   -1.5442 C.3     1  UNL1       -0.0389
      6 C           1.6602    0.6454   -0.7285 C.ar    1  UNL1        0.0729
      7 C           0.9273   -0.1272    0.1661 C.ar    1  UNL1        0.0319
      8 C           1.5826   -0.8987    1.1075 C.ar    1  UNL1       -0.0474
      9 C          -0.4693    0.1146   -0.1694 C.2     1  UNL1        0.1404
     10 C          -1.4855   -0.4381    0.4551 C.2     1  UNL1       -0.0115
     11 C          -2.8694   -0.1702    0.0888 C.ar    1  UNL1       -0.0215
     12 C          -3.2478   -0.0055   -1.2274 C.ar    1  UNL1       -0.0545
     13 C          -4.5725    0.2392   -1.5009 C.ar    1  UNL1       -0.0612
     14 C          -5.5427    0.3290   -0.5222 C.ar    1  UNL1       -0.0617
     15 C          -5.1560    0.1627    0.7968 C.ar    1  UNL1       -0.0612
     16 C          -3.8351   -0.0843    1.0978 C.ar    1  UNL1       -0.0545
     17 O          -0.5533    0.9990   -1.2277 O.3     1  UNL1       -0.4217
     18 C           0.7544    1.3632   -1.6147 C.2     1  UNL1        0.3454
     19 O           1.0177    2.1572   -2.5499 O.2     1  UNL1       -0.2445
     20 H           4.6310   -1.4665    2.4375 H       1  UNL1        0.0278
     21 H           3.5777   -2.8605    1.9703 H       1  UNL1        0.0278
     22 H           3.0653   -1.7013    3.2253 H       1  UNL1        0.0278
     23 H           4.7590   -0.2050    0.3963 H       1  UNL1        0.0623
     24 H           4.5408    2.0138   -0.9152 H       1  UNL1        0.0278
     25 H           4.5513    0.6697   -2.0646 H       1  UNL1        0.0278
     26 H           3.3034    1.9705   -2.2792 H       1  UNL1        0.0278
     27 H           0.9626   -1.4994    1.7956 H       1  UNL1        0.0627
     28 H          -1.2557   -1.1279    1.2823 H       1  UNL1        0.0660
     29 H          -2.5534   -0.0620   -2.0540 H       1  UNL1        0.0623
     30 H          -4.8629    0.3620   -2.5302 H       1  UNL1        0.0618
     31 H          -6.5861    0.5219   -0.7591 H       1  UNL1        0.0618
     32 H          -5.8896    0.2238    1.5850 H       1  UNL1        0.0618
     33 H          -3.5642   -0.2104    2.1438 H       1  UNL1        0.0623
@<TRIPOS>BOND
     1     1     2    1
     2     2     3   ar
     3     3     4   ar
     4     4     5    1
     5     4     6   ar
     6     6     7   ar
     7     7     8   ar
     8     7     9    1
     9     9    10    2
    10    10    11    1
    11    11    12   ar
    12    12    13   ar
    13    13    14   ar
    14    14    15   ar
    15    15    16   ar
    16     9    17    1
    17    17    18    1
    18    18    19    2
    19     8     2   ar
    20    16    11   ar
    21    18     6    1
    22     1    20    1
    23     1    21    1
    24     1    22    1
    25     3    23    1
    26     5    24    1
    27     5    25    1
    28     5    26    1
    29     8    27    1
    30    10    28    1
    31    12    29    1
    32    13    30    1
    33    14    31    1
    34    15    32    1
    35    16    33    1
@<TRIPOS>MOLECULE
CHEMBL3235960
 51 54 0 0 0
SMALL
GASTEIGER

@<TRIPOS>ATOM
      1 O           6.1628   -2.7518   -3.8005 O.2     1  UNL1       -0.2451
      2 C           5.6980   -1.6028   -3.6941 C.2     1  UNL1        0.3368
      3 O           6.0298   -0.6727   -4.6634 O.3     1  UNL1       -0.4771
      4 C           4.8264   -1.2775   -2.5609 C.ar    1  UNL1        0.0589
      5 C           4.2925   -0.0149   -2.4095 C.ar    1  UNL1       -0.0460
      6 C           3.4693    0.2915   -1.3389 C.ar    1  UNL1       -0.0397
      7 C           3.1421   -0.6360   -0.3776 C.ar    1  UNL1        0.0348
      8 N           2.2881   -0.3470    0.7478 N.am    1  UNL1       -0.2693
      9 C           0.8927   -0.5347    0.6593 C.2     1  UNL1        0.3072
     10 O           0.4998   -0.9709   -0.4891 O.2     1  UNL1       -0.2523
     11 N          -0.0547   -0.2902    1.6880 N.am    1  UNL1       -0.2740
     12 C           0.3893    0.1711    2.9712 C.3     1  UNL1        0.0211
     13 C          -0.1590    1.6108    3.1011 C.3     1  UNL1       -0.0114
     14 C          -1.6541    1.3682    3.1814 C.ar    1  UNL1       -0.0406
     15 C          -2.4383    2.1308    4.0110 C.ar    1  UNL1       -0.0582
     16 C          -3.8179    1.9129    4.1087 C.ar    1  UNL1       -0.0615
     17 C          -4.3984    0.9140    3.3577 C.ar    1  UNL1       -0.0614
     18 C          -3.6052    0.1532    2.5276 C.ar    1  UNL1       -0.0562
     19 C          -2.2248    0.3670    2.4257 C.ar    1  UNL1       -0.0193
     20 C          -1.4741   -0.4932    1.4983 C.3     1  UNL1        0.0782
     21 C          -1.8862   -0.2689    0.0889 C.ar    1  UNL1       -0.0225
     22 C          -2.6715   -1.1975   -0.5371 C.ar    1  UNL1       -0.0559
     23 C          -3.0583   -0.9739   -1.8356 C.ar    1  UNL1       -0.0498
     24 C          -2.6780    0.1572   -2.5233 C.ar    1  UNL1        0.0548
     25 C          -3.1006    0.3829   -3.9152 C.3     1  UNL1        0.4174
     26 F          -3.0968    1.7493   -4.1446 F       1  UNL1       -0.1659
     27 F          -4.3838   -0.1269   -4.0508 F       1  UNL1       -0.1659
     28 F          -2.2243   -0.2711   -4.7680 F       1  UNL1       -0.1659
     29 C          -1.8879    1.0905   -1.8923 C.ar    1  UNL1       -0.0498
     30 C          -1.5050    0.8548   -0.5860 C.ar    1  UNL1       -0.0559
     31 C           3.6740   -1.8964   -0.5273 C.ar    1  UNL1       -0.0397
     32 C           4.5032   -2.2128   -1.6017 C.ar    1  UNL1       -0.0460
     33 H           6.9769   -0.6230   -5.0201 H       1  UNL1        0.2954
     34 H           4.5366    0.7471   -3.1624 H       1  UNL1        0.0626
     35 H           3.0807    1.2784   -1.2634 H       1  UNL1        0.0636
     36 H           2.6878    0.0070    1.6431 H       1  UNL1        0.1564
     37 H           1.4590    0.1425    3.1351 H       1  UNL1        0.0468
     38 H          -0.1234   -0.3991    3.7991 H       1  UNL1        0.0468
     39 H           0.0791    2.1662    2.1830 H       1  UNL1        0.0328
     40 H           0.2372    2.0736    4.0003 H       1  UNL1        0.0328
     41 H          -1.9745    2.9165    4.6002 H       1  UNL1        0.0620
     42 H          -4.4307    2.5218    4.7682 H       1  UNL1        0.0618
     43 H          -5.4593    0.7582    3.4434 H       1  UNL1        0.0618
     44 H          -4.1006   -0.6241    1.9522 H       1  UNL1        0.0621
     45 H          -1.7348   -1.5472    1.7711 H       1  UNL1        0.0601
     46 H          -3.0049   -2.1177   -0.0378 H       1  UNL1        0.0621
     47 H          -3.6901   -1.6884   -2.3864 H       1  UNL1        0.0623
     48 H          -1.5671    2.0058   -2.4160 H       1  UNL1        0.0623
     49 H          -0.8831    1.6300   -0.1483 H       1  UNL1        0.0621
     50 H           3.4328   -2.6579    0.2210 H       1  UNL1        0.0636
     51 H           4.9294   -3.2045   -1.7309 H       1  UNL1        0.0626
@<TRIPOS>BOND
     1     1     2    2
     2     2     3    1
     3     2     4    1
     4     4     5   ar
     5     5     6   ar
     6     6     7   ar
     7     7     8    1
     8     8     9   am
     9     9    10    2
    10     9    11   am
    11    11    12    1
    12    12    13    1
    13    13    14    1
    14    14    15   ar
    15    15    16   ar
    16    16    17   ar
    17    17    18   ar
    18    18    19   ar
    19    19    20    1
    20    20    21    1
    21    21    22   ar
    22    22    23   ar
    23    23    24   ar
    24    24    25    1
    25    25    26    1
    26    25    27    1
    27    25    28    1
    28    24    29   ar
    29    29    30   ar
    30     7    31   ar
    31    31    32   ar
    32    32     4   ar
    33    20    11    1
    34    30    21   ar
    35    19    14   ar
    36     3    33    1
    37     5    34    1
    38     6    35    1
    39     8    36    1
    40    12    37    1
    41    12    38    1
    42    13    39    1
    43    13    40    1
    44    15    41    1
    45    16    42    1
    46    17    43    1
    47    18    44    1
    48    20    45    1
    49    22    46    1
    50    23    47    1
    51    29    48    1
    52    30    49    1
    53    31    50    1
    54    32    51    1
@<TRIPOS>MOLECULE
50934284
 41 43 0 0 0
SMALL
GASTEIGER

@<TRIPOS>ATOM
      1 C          -3.3088    3.1289   -0.9053 C.3     1  UNL1       -0.0652
      2 C          -3.2522    1.5955   -0.8247 C.3     1  UNL1       -0.0539
      3 C          -1.8441    1.1872   -0.5502 C.3     1  UNL1       -0.0303
      4 C          -1.6792   -0.2670   -0.4362 C.3     1  UNL1        0.0534
      5 C          -2.4420   -0.9252    0.6988 C.ar    1  UNL1       -0.0167
      6 C          -3.1012   -0.4323    1.7257 C.ar    1  UNL1       -0.0495
      7 C          -3.6968   -1.3045    2.6254 C.ar    1  UNL1       -0.0237
      8 S          -3.2502   -2.9107    1.9059 S.2     1  UNL1       -0.1012
      9 C          -2.3822   -2.3161    0.5811 C.ar    1  UNL1       -0.0038
     10 C          -1.6079   -2.9167   -0.5877 C.3     1  UNL1       -0.0052
     11 C          -0.2436   -2.2714   -0.5485 C.3     1  UNL1        0.0212
     12 N          -0.3586   -0.8068   -0.3951 N.am    1  UNL1       -0.2780
     13 C           0.8392   -0.0628   -0.2160 C.2     1  UNL1        0.3069
     14 O           0.7274    1.1739   -0.0810 O.2     1  UNL1       -0.2523
     15 N           2.1040   -0.6852   -0.1903 N.am    1  UNL1       -0.2693
     16 C           3.3535   -0.0534   -0.0202 C.ar    1  UNL1        0.0349
     17 C           3.5679    1.2852    0.1517 C.ar    1  UNL1       -0.0391
     18 C           4.8537    1.8270    0.3142 C.ar    1  UNL1       -0.0416
     19 C           5.9304    1.0088    0.3027 C.ar    1  UNL1        0.0411
     20 CL          7.5860    1.5968    0.4993 Cl      1  UNL1       -0.0835
     21 C           5.7636   -0.3304    0.1344 C.ar    1  UNL1       -0.0416
     22 C           4.5059   -0.8507   -0.0234 C.ar    1  UNL1       -0.0391
     23 H          -2.5197    3.5839   -0.2699 H       1  UNL1        0.0230
     24 H          -3.1155    3.4644   -1.9445 H       1  UNL1        0.0230
     25 H          -4.2792    3.4826   -0.5123 H       1  UNL1        0.0230
     26 H          -3.9790    1.2333   -0.1202 H       1  UNL1        0.0263
     27 H          -3.5932    1.2360   -1.8499 H       1  UNL1        0.0263
     28 H          -1.5542    1.6599    0.4193 H       1  UNL1        0.0286
     29 H          -1.1576    1.5479   -1.3522 H       1  UNL1        0.0286
     30 H          -2.1872   -0.7193   -1.3659 H       1  UNL1        0.0551
     31 H          -3.1887    0.6639    1.9237 H       1  UNL1        0.0626
     32 H          -4.2961   -1.1448    3.5514 H       1  UNL1        0.0693
     33 H          -2.1232   -2.7076   -1.5200 H       1  UNL1        0.0334
     34 H          -1.4736   -4.0025   -0.3866 H       1  UNL1        0.0334
     35 H           0.2487   -2.6111    0.4082 H       1  UNL1        0.0468
     36 H           0.3860   -2.5388   -1.4030 H       1  UNL1        0.0468
     37 H           2.0735   -1.7455   -0.3158 H       1  UNL1        0.1564
     38 H           2.7320    1.9592    0.1651 H       1  UNL1        0.0636
     39 H           4.9773    2.8906    0.4472 H       1  UNL1        0.0633
     40 H           6.6174   -1.0004    0.1229 H       1  UNL1        0.0633
     41 H           4.3675   -1.9216   -0.1583 H       1  UNL1        0.0636
@<TRIPOS>BOND
     1     1     2    1
     2     2     3    1
     3     3     4    1
     4     4     5    1
     5     5     6   ar
     6     6     7   ar
     7     7     8   ar
     8     8     9   ar
     9     9    10    1
    10    10    11    1
    11    11    12    1
    12    12    13   am
    13    13    14    2
    14    13    15   am
    15    15    16    1
    16    16    17   ar
    17    17    18   ar
    18    18    19   ar
    19    19    20    1
    20    19    21   ar
    21    21    22   ar
    22    12     4    1
    23    22    16   ar
    24     9     5   ar
    25     1    23    1
    26     1    24    1
    27     1    25    1
    28     2    26    1
    29     2    27    1
    30     3    28    1
    31     3    29    1
    32     4    30    1
    33     6    31    1
    34     7    32    1
    35    10    33    1
    36    10    34    1
    37    11    35    1
    38    11    36    1
    39    15    37    1
    40    17    38    1
    41    18    39    1
    42    21    40    1
    43    22    41    1
@<TRIPOS>MOLECULE
51082010
 60 62 0 0 0
SMALL
GASTEIGER

@<TRIPOS>ATOM
      1 C          -1.8848    3.5759    3.3164 C.3     1  UNL1       -0.0652
      2 C          -2.0811    3.5669    1.8244 C.3     1  UNL1       -0.0545
      3 C          -1.3770    2.3396    1.2476 C.3     1  UNL1       -0.0374
      4 C          -1.6034    2.3789   -0.2299 C.3     1  UNL1        0.0153
      5 N          -0.9696    1.2344   -0.9176 N.am    1  UNL1       -0.2943
      6 C           0.3449    1.4208   -1.3459 C.2     1  UNL1        0.2504
      7 O           0.8484    2.5904   -1.1086 O.2     1  UNL1       -0.2698
      8 C           1.2395    0.5002   -2.0168 C.ar    1  UNL1        0.0785
      9 C           1.3592    0.3705   -3.3705 C.ar    1  UNL1       -0.0461
     10 C           2.2551   -0.5168   -3.9174 C.ar    1  UNL1       -0.0608
     11 C           3.0728   -1.3152   -3.1179 C.ar    1  UNL1       -0.0583
     12 C           2.9672   -1.1991   -1.7422 C.ar    1  UNL1       -0.0192
     13 C           2.0612   -0.3020   -1.2093 C.ar    1  UNL1        0.1331
     14 O           1.9302   -0.1611    0.1660 O.3     1  UNL1       -0.4866
     15 C           2.7530   -0.9646    0.9880 C.3     1  UNL1        0.1147
     16 C           2.5505   -0.7499    2.4233 C.ar    1  UNL1       -0.0104
     17 C           1.6262   -1.4958    3.1056 C.ar    1  UNL1       -0.0554
     18 C           1.4222   -1.3075    4.4637 C.ar    1  UNL1       -0.0614
     19 C           2.1675   -0.3557    5.1127 C.ar    1  UNL1       -0.0617
     20 C           3.1070    0.4162    4.4662 C.ar    1  UNL1       -0.0614
     21 C           3.2740    0.1901    3.1081 C.ar    1  UNL1       -0.0554
     22 C          -1.7054    0.0443   -1.1372 C.3     1  UNL1        0.0277
     23 C          -1.1966   -1.2268   -0.5691 C.3     1  UNL1       -0.0342
     24 C          -2.3274   -2.2759   -0.6414 C.3     1  UNL1       -0.0500
     25 C          -2.8174   -2.5065   -2.0239 C.3     1  UNL1       -0.0376
     26 C          -2.0731   -1.6456   -2.9862 C.3     1  UNL1        0.0065
     27 N          -0.7676   -2.1511   -3.3473 N.3     1  UNL1       -0.3272
     28 C          -2.0844   -0.1991   -2.5868 C.3     1  UNL1       -0.0190
     29 H          -0.8782    3.9460    3.5553 H       1  UNL1        0.0230
     30 H          -2.6606    4.1899    3.7989 H       1  UNL1        0.0230
     31 H          -1.9929    2.5211    3.6599 H       1  UNL1        0.0230
     32 H          -3.1736    3.4314    1.6239 H       1  UNL1        0.0263
     33 H          -1.6508    4.4402    1.3112 H       1  UNL1        0.0263
     34 H          -1.7145    1.4040    1.7306 H       1  UNL1        0.0280
     35 H          -0.3082    2.4614    1.5218 H       1  UNL1        0.0280
     36 H          -2.6840    2.4321   -0.4677 H       1  UNL1        0.0465
     37 H          -1.1538    3.3187   -0.6074 H       1  UNL1        0.0465
     38 H           0.7504    0.9673   -4.0151 H       1  UNL1        0.0626
     39 H           2.3841   -0.6530   -4.9847 H       1  UNL1        0.0618
     40 H           3.7850   -2.0204   -3.5138 H       1  UNL1        0.0619
     41 H           3.5943   -1.8097   -1.0758 H       1  UNL1        0.0654
     42 H           2.6459   -2.0550    0.7077 H       1  UNL1        0.0748
     43 H           3.8110   -0.7297    0.6676 H       1  UNL1        0.0748
     44 H           1.0334   -2.2489    2.6045 H       1  UNL1        0.0621
     45 H           0.6789   -1.9154    4.9856 H       1  UNL1        0.0618
     46 H           2.0156   -0.1985    6.1858 H       1  UNL1        0.0618
     47 H           3.6926    1.1642    4.9742 H       1  UNL1        0.0618
     48 H           4.0233    0.8141    2.6209 H       1  UNL1        0.0621
     49 H          -2.7298    0.1964   -0.6186 H       1  UNL1        0.0501
     50 H          -1.0046   -1.1620    0.5439 H       1  UNL1        0.0283
     51 H          -0.3681   -1.6943   -1.1007 H       1  UNL1        0.0283
     52 H          -3.1132   -1.8968    0.0503 H       1  UNL1        0.0266
     53 H          -1.8780   -3.2145   -0.2494 H       1  UNL1        0.0266
     54 H          -2.7782   -3.5911   -2.2990 H       1  UNL1        0.0280
     55 H          -3.9136   -2.2345   -2.0363 H       1  UNL1        0.0280
     56 H          -2.6826   -1.6807   -3.9488 H       1  UNL1        0.0459
     57 H          -0.5070   -1.7510   -4.2613 H       1  UNL1        0.1185
     58 H          -0.7086   -3.1765   -3.2838 H       1  UNL1        0.1185
     59 H          -3.1573    0.1402   -2.7239 H       1  UNL1        0.0298
     60 H          -1.4479    0.3497   -3.3097 H       1  UNL1        0.0298
@<TRIPOS>BOND
     1     1     2    1
     2     2     3    1
     3     3     4    1
     4     4     5    1
     5     5     6   am
     6     6     7    2
     7     6     8    1
     8     8     9   ar
     9     9    10   ar
    10    10    11   ar
    11    11    12   ar
    12    12    13   ar
    13    13    14    1
    14    14    15    1
    15    15    16    1
    16    16    17   ar
    17    17    18   ar
    18    18    19   ar
    19    19    20   ar
    20    20    21   ar
    21     5    22    1
    22    22    23    1
    23    23    24    1
    24    24    25    1
    25    25    26    1
    26    26    27    1
    27    26    28    1
    28    13     8   ar
    29    21    16   ar
    30    28    22    1
    31     1    29    1
    32     1    30    1
    33     1    31    1
    34     2    32    1
    35     2    33    1
    36     3    34    1
    37     3    35    1
    38     4    36    1
    39     4    37    1
    40     9    38    1
    41    10    39    1
    42    11    40    1
    43    12    41    1
    44    15    42    1
    45    15    43    1
    46    17    44    1
    47    18    45    1
    48    19    46    1
    49    20    47    1
    50    21    48    1
    51    22    49    1
    52    23    50    1
    53    23    51    1
    54    24    52    1
    55    24    53    1
    56    25    54    1
    57    25    55    1
    58    26    56    1
    59    27    57    1
    60    27    58    1
    61    28    59    1
    62    28    60    1
@<TRIPOS>MOLECULE
50928588
 59 62 0 0 0
SMALL
GASTEIGER

@<TRIPOS>ATOM
      1 C          -1.3892   -4.3359   -1.4502 C.3     1  UNL1       -0.0411
      2 C          -1.7077   -3.4786   -0.2641 C.3     1  UNL1        0.0541
      3 O          -1.8848   -2.1265   -0.6167 O.3     1  UNL1       -0.3077
      4 P          -2.2341   -1.2551    0.7634 P.3     1  UNL1        0.3405
      5 O          -1.8789   -2.0652    2.0064 O.2     1  UNL1       -0.2578
      6 O          -3.8960   -0.9445    0.8503 O.3     1  UNL1       -0.3077
      7 C          -4.4810   -1.0930   -0.4026 C.3     1  UNL1        0.0541
      8 C          -5.9630   -0.8026   -0.2816 C.3     1  UNL1       -0.0411
      9 C          -1.3737    0.3338    0.8371 C.3     1  UNL1        0.0920
     10 C          -1.9630    1.2372   -0.2233 C.3     1  UNL1       -0.0097
     11 C          -1.3381    2.5728   -0.2613 C.ar    1  UNL1       -0.0460
     12 C          -0.2430    2.7613   -1.0756 C.ar    1  UNL1       -0.0558
     13 C           0.3806    3.9951   -1.1484 C.ar    1  UNL1       -0.0262
     14 C          -0.1324    5.0250   -0.3790 C.ar    1  UNL1        0.1234
     15 F           0.4486    6.2319   -0.4270 F       1  UNL1       -0.2055
     16 C          -1.2413    4.8212    0.4410 C.ar    1  UNL1       -0.0262
     17 C          -1.8508    3.5852    0.5018 C.ar    1  UNL1       -0.0558
     18 C           0.0901    0.1932    0.7260 C.ar    1  UNL1       -0.0068
     19 C           0.8179   -0.7315   -0.0009 C.ar    1  UNL1        0.0150
     20 N           2.1384   -0.5295    0.1560 N.ar    1  UNL1       -0.3156
     21 C           3.1941   -1.2956   -0.4468 C.ar    1  UNL1        0.0466
     22 C           3.4287   -2.6074   -0.0924 C.ar    1  UNL1       -0.0378
     23 C           4.4410   -3.3642   -0.6611 C.ar    1  UNL1       -0.0598
     24 C           5.2622   -2.7940   -1.6289 C.ar    1  UNL1       -0.0616
     25 C           5.0314   -1.4812   -1.9870 C.ar    1  UNL1       -0.0598
     26 C           4.0116   -0.7368   -1.4064 C.ar    1  UNL1       -0.0378
     27 C           2.2647    0.5240    0.9829 C.ar    1  UNL1        0.0541
     28 C           3.3969    1.1627    1.4829 C.ar    1  UNL1       -0.0359
     29 C           3.2400    2.2428    2.3313 C.ar    1  UNL1       -0.0414
     30 C           1.9986    2.7147    2.7034 C.ar    1  UNL1        0.0417
     31 CL          1.8980    4.1011    3.7923 Cl      1  UNL1       -0.0835
     32 C           0.8838    2.0864    2.2114 C.ar    1  UNL1       -0.0339
     33 C           1.0226    0.9949    1.3541 C.ar    1  UNL1        0.0056
     34 H          -1.5228   -3.7650   -2.4053 H       1  UNL1        0.0252
     35 H          -2.0680   -5.2284   -1.5289 H       1  UNL1        0.0252
     36 H          -0.3250   -4.6796   -1.4708 H       1  UNL1        0.0252
     37 H          -0.7833   -3.4783    0.3851 H       1  UNL1        0.0562
     38 H          -2.5712   -3.8619    0.2785 H       1  UNL1        0.0562
     39 H          -4.0755   -0.4171   -1.1654 H       1  UNL1        0.0562
     40 H          -4.3802   -2.1694   -0.7226 H       1  UNL1        0.0562
     41 H          -6.3238   -0.5453   -1.2931 H       1  UNL1        0.0252
     42 H          -6.4424   -1.7171    0.1285 H       1  UNL1        0.0252
     43 H          -6.1484    0.0069    0.4565 H       1  UNL1        0.0252
     44 H          -1.6117    0.7911    1.8158 H       1  UNL1        0.0476
     45 H          -3.0337    1.3784    0.0459 H       1  UNL1        0.0325
     46 H          -1.8978    0.7058   -1.1944 H       1  UNL1        0.0325
     47 H           0.1693    1.9470   -1.6894 H       1  UNL1        0.0621
     48 H           1.2468    4.1817   -1.7795 H       1  UNL1        0.0646
     49 H          -1.6428    5.6458    1.0497 H       1  UNL1        0.0646
     50 H          -2.7245    3.4585    1.1597 H       1  UNL1        0.0621
     51 H           0.4078   -1.5294   -0.6267 H       1  UNL1        0.0816
     52 H           2.7702   -3.0288    0.6683 H       1  UNL1        0.0638
     53 H           4.5957   -4.4004   -0.3541 H       1  UNL1        0.0618
     54 H           6.0478   -3.3952   -2.0641 H       1  UNL1        0.0618
     55 H           5.6902   -1.0640   -2.7462 H       1  UNL1        0.0618
     56 H           3.8625    0.2830   -1.7113 H       1  UNL1        0.0638
     57 H           4.3443    0.7772    1.1790 H       1  UNL1        0.0639
     58 H           4.1244    2.7302    2.7129 H       1  UNL1        0.0633
     59 H          -0.0802    2.4326    2.4850 H       1  UNL1        0.0639
@<TRIPOS>BOND
     1     1     2    1
     2     2     3    1
     3     3     4    1
     4     4     5    2
     5     4     6    1
     6     6     7    1
     7     7     8    1
     8     4     9    1
     9     9    10    1
    10    10    11    1
    11    11    12   ar
    12    12    13   ar
    13    13    14   ar
    14    14    15    1
    15    14    16   ar
    16    16    17   ar
    17     9    18    1
    18    18    19   ar
    19    19    20   ar
    20    20    21    1
    21    21    22   ar
    22    22    23   ar
    23    23    24   ar
    24    24    25   ar
    25    25    26   ar
    26    20    27   ar
    27    27    28   ar
    28    28    29   ar
    29    29    30   ar
    30    30    31    1
    31    30    32   ar
    32    32    33   ar
    33    17    11   ar
    34    33    18   ar
    35    26    21   ar
    36    33    27   ar
    37     1    34    1
    38     1    35    1
    39     1    36    1
    40     2    37    1
    41     2    38    1
    42     7    39    1
    43     7    40    1
    44     8    41    1
    45     8    42    1
    46     8    43    1
    47     9    44    1
    48    10    45    1
    49    10    46    1
    50    12    47    1
    51    13    48    1
    52    16    49    1
    53    17    50    1
    54    19    51    1
    55    22    52    1
    56    23    53    1
    57    24    54    1
    58    25    55    1
    59    26    56    1
    60    28    57    1
    61    29    58    1
    62    32    59    1
@<TRIPOS>MOLECULE
CHEMBL4745090
 53 56 0 0 0
SMALL
GASTEIGER

@<TRIPOS>ATOM
      1 N           0.8007    1.4585    3.4930 N.am    1  UNL1       -0.3275
      2 C           0.7402    0.5792    2.3871 C.2     1  UNL1        0.2356
      3 O           1.1149   -0.6214    2.6456 O.2     1  UNL1       -0.2736
      4 C           0.2976    0.9544    1.0443 C.3     1  UNL1        0.1281
      5 C           0.8594    2.2679    0.6841 C.ar    1  UNL1       -0.0182
      6 C           1.7394    2.5051   -0.3034 C.ar    1  UNL1       -0.0563
      7 C           2.1967    3.7926   -0.5120 C.ar    1  UNL1       -0.0614
      8 C           1.7725    4.8549    0.2705 C.ar    1  UNL1       -0.0617
      9 C           0.8687    4.6165    1.2840 C.ar    1  UNL1       -0.0614
     10 C           0.4294    3.3422    1.4752 C.ar    1  UNL1       -0.0563
     11 N           0.4427   -0.0919    0.0900 N.am    1  UNL1       -0.2749
     12 C           1.7327   -0.6416   -0.1029 C.2     1  UNL1        0.2480
     13 O           2.6868   -0.2236    0.5948 O.2     1  UNL1       -0.2699
     14 C           2.0311   -1.6886   -1.0880 C.ar    1  UNL1        0.0369
     15 C           1.9998   -1.4099   -2.4288 C.ar    1  UNL1       -0.0496
     16 C           2.2841   -2.4326   -3.3109 C.ar    1  UNL1       -0.0610
     17 C           2.5948   -3.7135   -2.8776 C.ar    1  UNL1       -0.0617
     18 C           2.6220   -3.9770   -1.5148 C.ar    1  UNL1       -0.0610
     19 C           2.3344   -2.9397   -0.6541 C.ar    1  UNL1       -0.0496
     20 C          -0.6061   -0.6639   -0.6992 C.3     1  UNL1        0.0528
     21 C          -1.2293    0.2555   -1.7010 C.3     1  UNL1       -0.0298
     22 C          -2.2753    1.1867   -1.1760 C.3     1  UNL1       -0.0471
     23 C          -3.2995    0.5664   -0.2918 C.3     1  UNL1       -0.0273
     24 C          -2.8978   -0.6993    0.3462 C.ar    1  UNL1       -0.0424
     25 C          -3.8633   -1.2929    1.1616 C.ar    1  UNL1       -0.0583
     26 C          -3.5714   -2.4785    1.8018 C.ar    1  UNL1       -0.0615
     27 C          -2.3258   -3.0354    1.6093 C.ar    1  UNL1       -0.0614
     28 C          -1.3816   -2.4393    0.8020 C.ar    1  UNL1       -0.0565
     29 C          -1.6597   -1.2430    0.1486 C.ar    1  UNL1       -0.0238
     30 H           0.1486    1.3475    4.2948 H       1  UNL1        0.1450
     31 H           1.4954    2.2347    3.5387 H       1  UNL1        0.1450
     32 H          -0.8365    1.1215    1.1008 H       1  UNL1        0.0648
     33 H           2.0886    1.7375   -0.9547 H       1  UNL1        0.0621
     34 H           2.9060    4.0565   -1.2876 H       1  UNL1        0.0618
     35 H           2.1219    5.8639    0.1176 H       1  UNL1        0.0618
     36 H           0.5196    5.4335    1.9103 H       1  UNL1        0.0618
     37 H          -0.2966    3.1627    2.2805 H       1  UNL1        0.0621
     38 H           1.7587   -0.4156   -2.7803 H       1  UNL1        0.0625
     39 H           2.2764   -2.2856   -4.3885 H       1  UNL1        0.0618
     40 H           2.8143   -4.4994   -3.5925 H       1  UNL1        0.0618
     41 H           2.8609   -4.9688   -1.1491 H       1  UNL1        0.0618
     42 H           2.3618   -3.1716    0.4004 H       1  UNL1        0.0625
     43 H          -0.1690   -1.4931   -1.3087 H       1  UNL1        0.0551
     44 H          -0.5159    0.8322   -2.3047 H       1  UNL1        0.0286
     45 H          -1.7597   -0.4105   -2.4467 H       1  UNL1        0.0286
     46 H          -1.8771    2.1428   -0.7728 H       1  UNL1        0.0269
     47 H          -2.8475    1.5283   -2.0978 H       1  UNL1        0.0269
     48 H          -4.2836    0.3704   -0.8098 H       1  UNL1        0.0313
     49 H          -3.5312    1.3151    0.5220 H       1  UNL1        0.0313
     50 H          -4.8470   -0.8308    1.2996 H       1  UNL1        0.0620
     51 H          -4.3235   -2.9580    2.4482 H       1  UNL1        0.0618
     52 H          -2.0815   -3.9766    2.1132 H       1  UNL1        0.0618
     53 H          -0.4212   -2.9246    0.6906 H       1  UNL1        0.0621
@<TRIPOS>BOND
     1     1     2   am
     2     2     3    2
     3     2     4    1
     4     4     5    1
     5     5     6   ar
     6     6     7   ar
     7     7     8   ar
     8     8     9   ar
     9     9    10   ar
    10     4    11    1
    11    11    12   am
    12    12    13    2
    13    12    14    1
    14    14    15   ar
    15    15    16   ar
    16    16    17   ar
    17    17    18   ar
    18    18    19   ar
    19    11    20    1
    20    20    21    1
    21    21    22    1
    22    22    23    1
    23    23    24    1
    24    24    25   ar
    25    25    26   ar
    26    26    27   ar
    27    27    28   ar
    28    28    29   ar
    29    10     5   ar
    30    19    14   ar
    31    29    20    1
    32    29    24   ar
    33     1    30    1
    34     1    31    1
    35     4    32    1
    36     6    33    1
    37     7    34    1
    38     8    35    1
    39     9    36    1
    40    10    37    1
    41    15    38    1
    42    16    39    1
    43    17    40    1
    44    18    41    1
    45    19    42    1
    46    20    43    1
    47    21    44    1
    48    21    45    1
    49    22    46    1
    50    22    47    1
    51    23    48    1
    52    23    49    1
    53    25    50    1
    54    26    51    1
    55    27    52    1
    56    28    53    1
@<TRIPOS>MOLECULE
50934319
 45 48 0 0 0
SMALL
GASTEIGER

@<TRIPOS>ATOM
      1 O          -1.5988    0.6818    1.3779 O.2     1  UNL1       -0.2523
      2 C          -1.5162    0.1682    0.2272 C.2     1  UNL1        0.3072
      3 N          -2.6292   -0.6216   -0.2026 N.am    1  UNL1       -0.2693
      4 C          -3.7694   -0.8130    0.6328 C.ar    1  UNL1        0.0349
      5 C          -3.8357   -1.8739    1.5183 C.ar    1  UNL1       -0.0377
      6 C          -4.9470   -2.0456    2.3206 C.ar    1  UNL1       -0.0247
      7 C          -6.0240   -1.1810    2.2763 C.ar    1  UNL1        0.1235
      8 F          -7.1125   -1.3564    3.0680 F       1  UNL1       -0.2055
      9 C          -5.9488   -0.1236    1.3883 C.ar    1  UNL1       -0.0247
     10 C          -4.8360    0.0613    0.5746 C.ar    1  UNL1       -0.0377
     11 N          -0.3718    0.3774   -0.5762 N.am    1  UNL1       -0.2725
     12 C          -0.2993   -0.2115   -1.8781 C.3     1  UNL1        0.0226
     13 C           0.6846    0.4362   -2.8143 C.3     1  UNL1        0.0073
     14 C           1.0140    1.8265   -2.3874 C.ar    1  UNL1        0.0657
     15 N           1.3312    2.8891   -3.1202 N.ar    1  UNL1       -0.2405
     16 C           1.5426    3.9183   -2.2862 C.ar    1  UNL1        0.0939
     17 N           1.3605    3.5122   -1.0268 N.ar    1  UNL1       -0.3462
     18 C           1.0317    2.2132   -1.0803 C.ar    1  UNL1        0.0639
     19 C           0.7055    1.1833   -0.0620 C.3     1  UNL1        0.0945
     20 C           1.9176    0.3586    0.2361 C.ar    1  UNL1       -0.0211
     21 C           1.8139   -0.8457    0.9009 C.ar    1  UNL1       -0.0559
     22 C           2.9094   -1.6304    1.1917 C.ar    1  UNL1       -0.0498
     23 C           4.1770   -1.2321    0.8208 C.ar    1  UNL1        0.0548
     24 C           5.3856   -2.0447    1.1128 C.3     1  UNL1        0.4174
     25 F           6.4024   -1.3018    1.6642 F       1  UNL1       -0.1659
     26 F           5.8190   -2.5650   -0.0921 F       1  UNL1       -0.1659
     27 F           5.0270   -3.1145    1.9137 F       1  UNL1       -0.1659
     28 C           4.2948   -0.0325    0.1568 C.ar    1  UNL1       -0.0498
     29 C           3.1906    0.7507   -0.1321 C.ar    1  UNL1       -0.0559
     30 H          -2.6313   -1.0761   -1.1375 H       1  UNL1        0.1564
     31 H          -3.0201   -2.5974    1.6067 H       1  UNL1        0.0637
     32 H          -4.9859   -2.8774    3.0071 H       1  UNL1        0.0647
     33 H          -6.7924    0.5644    1.3450 H       1  UNL1        0.0647
     34 H          -4.8584    0.9111   -0.0895 H       1  UNL1        0.0637
     35 H          -0.0412   -1.3009   -1.7316 H       1  UNL1        0.0469
     36 H          -1.2947   -0.2212   -2.4042 H       1  UNL1        0.0469
     37 H           0.3490    0.4186   -3.8684 H       1  UNL1        0.0344
     38 H           1.6297   -0.1523   -2.7823 H       1  UNL1        0.0344
     39 H           1.8192    4.9401   -2.5328 H       1  UNL1        0.1027
     40 H           1.4486    4.0738   -0.1340 H       1  UNL1        0.1666
     41 H           0.3779    1.7239    0.8752 H       1  UNL1        0.0617
     42 H           0.8235   -1.1749    1.2005 H       1  UNL1        0.0621
     43 H           2.8217   -2.5842    1.7189 H       1  UNL1        0.0623
     44 H           5.3003    0.2741   -0.1324 H       1  UNL1        0.0623
     45 H           3.3357    1.6951   -0.6612 H       1  UNL1        0.0621
@<TRIPOS>BOND
     1     1     2    2
     2     2     3   am
     3     3     4    1
     4     4     5   ar
     5     5     6   ar
     6     6     7   ar
     7     7     8    1
     8     7     9   ar
     9     9    10   ar
    10     2    11   am
    11    11    12    1
    12    12    13    1
    13    13    14    1
    14    14    15   ar
    15    15    16   ar
    16    16    17   ar
    17    17    18   ar
    18    18    19    1
    19    19    20    1
    20    20    21   ar
    21    21    22   ar
    22    22    23   ar
    23    23    24    1
    24    24    25    1
    25    24    26    1
    26    24    27    1
    27    23    28   ar
    28    28    29   ar
    29    10     4   ar
    30    19    11    1
    31    29    20   ar
    32    18    14   ar
    33     3    30    1
    34     5    31    1
    35     6    32    1
    36     9    33    1
    37    10    34    1
    38    12    35    1
    39    12    36    1
    40    13    37    1
    41    13    38    1
    42    16    39    1
    43    17    40    1
    44    19    41    1
    45    21    42    1
    46    22    43    1
    47    28    44    1
    48    29    45    1
@<TRIPOS>MOLECULE
619457
 41 43 0 0 0
SMALL
GASTEIGER

@<TRIPOS>ATOM
      1 C          -5.5039   -0.0418   -0.2804 C.3     1  UNL1       -0.0242
      2 C          -4.0475   -0.0968   -0.5287 C.ar    1  UNL1        0.0171
      3 N          -3.4732   -0.0787   -1.7544 N.ar    1  UNL1       -0.3579
      4 C          -2.1479   -0.1424   -1.6021 C.ar    1  UNL1        0.0472
      5 C          -1.1061   -0.1557   -2.5197 C.ar    1  UNL1       -0.0343
      6 C           0.1846   -0.2274   -2.0747 C.ar    1  UNL1       -0.0179
      7 C           0.5164   -0.2889   -0.7350 C.ar    1  UNL1        0.1217
      8 O           1.8297   -0.3613   -0.2980 O.3     1  UNL1       -0.4874
      9 C           2.8605   -0.3764   -1.2532 C.3     1  UNL1        0.1146
     10 C           4.2064   -0.4469   -0.6158 C.ar    1  UNL1       -0.0104
     11 C           4.9003    0.7096   -0.2952 C.ar    1  UNL1       -0.0554
     12 C           6.1498    0.6892    0.3007 C.ar    1  UNL1       -0.0614
     13 C           6.7469   -0.5263    0.5958 C.ar    1  UNL1       -0.0617
     14 C           6.0578   -1.6757    0.2775 C.ar    1  UNL1       -0.0614
     15 C           4.8208   -1.6409   -0.3124 C.ar    1  UNL1       -0.0554
     16 C          -0.5498   -0.2739    0.1553 C.ar    1  UNL1       -0.0105
     17 C          -1.8688   -0.2026   -0.2381 C.ar    1  UNL1        0.0066
     18 C          -3.0713   -0.1734    0.4302 C.ar    1  UNL1       -0.0181
     19 C          -3.2552   -0.2173    1.8812 C.3     1  UNL1       -0.0131
     20 C          -3.5924    1.0953    2.5194 C.3     1  UNL1       -0.0028
     21 N          -2.6041    2.1129    2.3348 N.3     1  UNL1       -0.3297
     22 H          -5.8135    0.9970    0.0147 H       1  UNL1        0.0292
     23 H          -6.0660   -0.2237   -1.2447 H       1  UNL1        0.0292
     24 H          -5.8558   -0.7351    0.4984 H       1  UNL1        0.0292
     25 H          -3.9752   -0.0242   -2.6739 H       1  UNL1        0.1656
     26 H          -1.3760   -0.1073   -3.5681 H       1  UNL1        0.0639
     27 H           1.0086   -0.2378   -2.8024 H       1  UNL1        0.0655
     28 H           2.6630   -1.2566   -1.9131 H       1  UNL1        0.0748
     29 H           2.7819    0.5271   -1.8721 H       1  UNL1        0.0748
     30 H           4.4230    1.6567   -0.5315 H       1  UNL1        0.0621
     31 H           6.6543    1.6153    0.5326 H       1  UNL1        0.0618
     32 H           7.7192   -0.5297    1.0593 H       1  UNL1        0.0618
     33 H           6.5592   -2.6226    0.5252 H       1  UNL1        0.0618
     34 H           4.3182   -2.5741   -0.5439 H       1  UNL1        0.0621
     35 H          -0.2871   -0.3220    1.2098 H       1  UNL1        0.0661
     36 H          -2.3563   -0.6191    2.4148 H       1  UNL1        0.0326
     37 H          -4.0805   -0.9294    2.1827 H       1  UNL1        0.0326
     38 H          -3.6646    0.8880    3.6262 H       1  UNL1        0.0425
     39 H          -4.5960    1.4844    2.2412 H       1  UNL1        0.0425
     40 H          -2.2845    2.5168    3.2432 H       1  UNL1        0.1182
     41 H          -2.8247    2.8149    1.6142 H       1  UNL1        0.1182
@<TRIPOS>BOND
     1     1     2    1
     2     2     3   ar
     3     3     4   ar
     4     4     5   ar
     5     5     6   ar
     6     6     7   ar
     7     7     8    1
     8     8     9    1
     9     9    10    1
    10    10    11   ar
    11    11    12   ar
    12    12    13   ar
    13    13    14   ar
    14    14    15   ar
    15     7    16   ar
    16    16    17   ar
    17    17    18   ar
    18    18    19    1
    19    19    20    1
    20    20    21    1
    21    18     2   ar
    22    17     4   ar
    23    15    10   ar
    24     1    22    1
    25     1    23    1
    26     1    24    1
    27     3    25    1
    28     5    26    1
    29     6    27    1
    30     9    28    1
    31     9    29    1
    32    11    30    1
    33    12    31    1
    34    13    32    1
    35    14    33    1
    36    15    34    1
    37    16    35    1
    38    19    36    1
    39    19    37    1
    40    20    38    1
    41    20    39    1
    42    21    40    1
    43    21    41    1
@<TRIPOS>MOLECULE
171349542
 34 35 0 0 0
SMALL
GASTEIGER

@<TRIPOS>ATOM
      1 C          -6.3342   -0.4834    0.2863 C.3     1  UNL1       -0.0393
      2 C          -4.8453   -0.7650    0.1410 C.3     1  UNL1        0.0707
      3 O          -4.0845    0.3437    0.3526 O.3     1  UNL1       -0.2774
      4 N          -2.7608    0.2093    0.2317 N.am    1  UNL1       -0.1795
      5 C          -2.2171   -1.0868   -0.1161 C.3     1  UNL1        0.0308
      6 C          -1.9100    1.3202    0.4407 C.2     1  UNL1        0.2809
      7 O          -2.4447    2.4276    0.7414 O.2     1  UNL1       -0.2671
      8 C          -0.5181    1.2532    0.3318 C.ar    1  UNL1        0.1392
      9 S           0.4840   -0.2542   -0.0938 S.2     1  UNL1       -0.0586
     10 C           2.0728    0.5813   -0.0006 C.ar    1  UNL1        0.1163
     11 C           3.3397   -0.1087   -0.2492 C.ar    1  UNL1        0.0486
     12 C           3.3890   -1.4494   -0.5717 C.ar    1  UNL1       -0.0485
     13 C           4.6058   -2.0882   -0.8048 C.ar    1  UNL1       -0.0609
     14 C           5.7648   -1.3540   -0.7072 C.ar    1  UNL1       -0.0583
     15 C           5.6892   -0.0183   -0.3841 C.ar    1  UNL1       -0.0195
     16 C           4.4817    0.6331   -0.1486 C.ar    1  UNL1        0.1265
     17 O           4.4407    1.9953    0.1785 O.3     1  UNL1       -0.5061
     18 N           1.7063    1.7507    0.3023 N.ar    1  UNL1       -0.2046
     19 C           0.5055    2.1361    0.4740 C.ar    1  UNL1        0.2328
     20 O           0.1954    3.4966    0.8186 O.3     1  UNL1       -0.4915
     21 H          -6.5148   -0.1852    1.3323 H       1  UNL1        0.0252
     22 H          -6.6487    0.3307   -0.4192 H       1  UNL1        0.0252
     23 H          -6.8555   -1.4257    0.0349 H       1  UNL1        0.0252
     24 H          -4.6455   -1.6248    0.8125 H       1  UNL1        0.0581
     25 H          -4.7204   -1.1245   -0.8995 H       1  UNL1        0.0581
     26 H          -1.6754   -1.0395   -1.0923 H       1  UNL1        0.0453
     27 H          -2.9759   -1.8743   -0.2587 H       1  UNL1        0.0453
     28 H          -1.5854   -1.4043    0.7327 H       1  UNL1        0.0453
     29 H           2.4680   -2.0116   -0.6443 H       1  UNL1        0.0625
     30 H           4.6218   -3.1427   -1.0570 H       1  UNL1        0.0618
     31 H           6.7196   -1.8571   -0.8905 H       1  UNL1        0.0619
     32 H           6.6151    0.5277   -0.3157 H       1  UNL1        0.0654
     33 H           4.1900    2.3202    1.1020 H       1  UNL1        0.2922
     34 H          -0.5532    3.9721    0.3388 H       1  UNL1        0.2938
@<TRIPOS>BOND
     1     1     2    1
     2     2     3    1
     3     3     4    1
     4     4     5    1
     5     4     6   am
     6     6     7    2
     7     6     8    1
     8     8     9   ar
     9     9    10   ar
    10    10    11    1
    11    11    12   ar
    12    12    13   ar
    13    13    14   ar
    14    14    15   ar
    15    15    16   ar
    16    16    17    1
    17    10    18   ar
    18    18    19   ar
    19    19    20    1
    20    19     8   ar
    21    16    11   ar
    22     1    21    1
    23     1    22    1
    24     1    23    1
    25     2    24    1
    26     2    25    1
    27     5    26    1
    28     5    27    1
    29     5    28    1
    30    12    29    1
    31    13    30    1
    32    14    31    1
    33    15    32    1
    34    17    33    1
    35    20    34    1
@<TRIPOS>MOLECULE
50333174
 32 33 0 0 0
SMALL
GASTEIGER

@<TRIPOS>ATOM
      1 O           1.5595   -1.3027   -0.8180 O.2     1  UNL1       -0.2705
      2 C           1.1184   -0.3229   -0.1723 C.2     1  UNL1        0.2411
      3 C          -0.3256   -0.0918   -0.0162 C.2     1  UNL1        0.0010
      4 C          -1.2243   -0.8918   -0.5398 C.2     1  UNL1       -0.0495
      5 C          -2.6665   -0.7142   -0.4189 C.ar    1  UNL1       -0.0185
      6 C          -3.5024   -1.6313   -1.0197 C.ar    1  UNL1       -0.0542
      7 C          -4.8761   -1.5418   -0.9569 C.ar    1  UNL1       -0.0548
      8 C          -5.4369   -0.4886   -0.2624 C.ar    1  UNL1        0.0156
      9 C          -4.6371    0.4468    0.3506 C.ar    1  UNL1        0.2737
     10 N          -5.2403    1.5117    1.0529 N.pl3   1  UNL1        0.0796
     11 O          -6.4756    1.5837    1.1038 O.2     1  UNL1        0.0414
     12 O          -4.4970    2.4735    1.6834 O.co2   1  UNL1       -0.5760
     13 C          -3.2588    0.3211    0.2639 C.ar    1  UNL1        0.0227
     14 N           2.0572    0.5652    0.4091 N.am    1  UNL1       -0.2810
     15 C           3.4669    0.4301    0.3161 C.ar    1  UNL1        0.0477
     16 C           4.1526   -0.2822    1.2545 C.ar    1  UNL1       -0.0394
     17 C           5.5320   -0.3971    1.1373 C.ar    1  UNL1       -0.0599
     18 C           6.1782    0.1960    0.0982 C.ar    1  UNL1       -0.0606
     19 C           5.4755    0.9120   -0.8423 C.ar    1  UNL1       -0.0460
     20 C           4.0984    1.0453   -0.7535 C.ar    1  UNL1        0.0391
     21 BR          3.1391    2.0410   -2.0651 Br      1  UNL1       -0.0484
     22 H          -0.6513    0.7637    0.5474 H       1  UNL1        0.0670
     23 H          -0.8115   -1.7418   -1.1001 H       1  UNL1        0.0625
     24 H          -3.0580   -2.4574   -1.5644 H       1  UNL1        0.0623
     25 H          -5.5483   -2.2515   -1.4218 H       1  UNL1        0.0620
     26 H          -6.5269   -0.4154   -0.2111 H       1  UNL1        0.0685
     27 H          -2.6464    1.0550    0.7449 H       1  UNL1        0.0691
     28 H           1.6873    1.3771    0.9441 H       1  UNL1        0.1551
     29 H           3.6283   -0.7527    2.0813 H       1  UNL1        0.0636
     30 H           6.0855   -0.9650    1.8839 H       1  UNL1        0.0618
     31 H           7.2584    0.1220   -0.0180 H       1  UNL1        0.0618
     32 H           5.9457    1.4043   -1.6908 H       1  UNL1        0.0629
@<TRIPOS>UNITY_ATOM_ATTR
10 1
charge 1
12 1
charge -1
@<TRIPOS>BOND
     1     1     2    2
     2     2     3    1
     3     3     4    2
     4     4     5    1
     5     5     6   ar
     6     6     7   ar
     7     7     8   ar
     8     8     9   ar
     9     9    10    1
    10    10    11    2
    11    10    12    1
    12     9    13   ar
    13     2    14   am
    14    14    15    1
    15    15    16   ar
    16    16    17   ar
    17    17    18   ar
    18    18    19   ar
    19    19    20   ar
    20    20    21    1
    21    13     5   ar
    22    20    15   ar
    23     3    22    1
    24     4    23    1
    25     6    24    1
    26     7    25    1
    27     8    26    1
    28    13    27    1
    29    14    28    1
    30    16    29    1
    31    17    30    1
    32    18    31    1
    33    19    32    1
@<TRIPOS>MOLECULE
51345612
 42 46 0 0 0
SMALL
GASTEIGER

@<TRIPOS>ATOM
      1 O           0.4508    4.0581   -1.6849 O.2     2  UNK2       -0.2738
      2 C           0.0057    3.4989   -0.6525 C.2     2  UNK2        0.2343
      3 N          -0.9064    4.1496    0.2223 N.am    1  GLY1       -0.3052
      4 CA         -1.6711    3.3424    1.1859 C.3     1  GLY1        0.0884
      5 C          -1.9168    2.0457    0.4625 C.2     1  GLY1        0.2341
      6 O          -3.0695    1.5626    0.3587 O.2     1  GLY1       -0.2738
      7 N          -0.8083    1.3500   -0.1202 N.am    2  UNK2       -0.2758
      8 C          -0.8644   -0.0025   -0.5388 C.3     2  UNK2        0.0924
      9 C          -1.9327   -0.7922    0.1140 C.ar    2  UNK2       -0.0211
     10 C          -2.1569   -0.7629    1.4713 C.ar    2  UNK2       -0.0551
     11 C          -3.1751   -1.5318    2.0010 C.ar    2  UNK2       -0.0431
     12 C          -3.9864   -2.3383    1.2123 C.ar    2  UNK2        0.0410
     13 CL         -5.2651   -3.3027    1.8852 Cl      2  UNK2       -0.0835
     14 C          -3.7629   -2.3669   -0.1371 C.ar    2  UNK2       -0.0431
     15 C          -2.7422   -1.5951   -0.6622 C.ar    2  UNK2       -0.0551
     16 C           0.4561   -0.6401   -0.4322 C.ar    2  UNK2        0.0456
     17 N           0.9211   -1.8461   -0.0253 N.ar    2  UNK2       -0.3560
     18 C           2.2640   -1.8862   -0.1638 C.ar    2  UNK2        0.0470
     19 C           3.2484   -2.8197    0.0793 C.ar    2  UNK2       -0.0378
     20 C           4.5742   -2.5704   -0.1678 C.ar    2  UNK2       -0.0598
     21 C           4.9789   -1.3659   -0.6735 C.ar    2  UNK2       -0.0611
     22 C           4.0076   -0.4043   -0.9289 C.ar    2  UNK2       -0.0523
     23 C           2.6855   -0.6563   -0.6812 C.ar    2  UNK2        0.0032
     24 C           1.5518    0.0759   -0.8303 C.ar    2  UNK2       -0.0147
     25 C           1.3204    1.4892   -1.3262 C.3     2  UNK2        0.0019
     26 C           0.4046    2.1198   -0.2792 C.3     2  UNK2        0.1072
     27 H          -1.0165    5.1694    0.1674 H       1  GLY1        0.1492
     28 HA1        -2.6066    3.8354    1.4387 H       1  GLY1        0.0558
     29 HA2        -0.9905    3.1971    2.0498 H       1  GLY1        0.0558
     30 H          -1.0818    0.0245   -1.6526 H       2  UNK2        0.0616
     31 H          -1.5140   -0.1282    2.0698 H       2  UNK2        0.0621
     32 H          -3.3481   -1.5090    3.0503 H       2  UNK2        0.0632
     33 H          -4.3948   -2.9947   -0.7492 H       2  UNK2        0.0632
     34 H          -2.5935   -1.6418   -1.7325 H       2  UNK2        0.0621
     35 H           0.3205   -2.5953    0.3294 H       2  UNK2        0.1657
     36 H           2.9183   -3.7739    0.4810 H       2  UNK2        0.0638
     37 H           5.3052   -3.3411    0.0423 H       2  UNK2        0.0618
     38 H           6.0327   -1.1942   -0.8599 H       2  UNK2        0.0618
     39 H           4.2871    0.5466   -1.3235 H       2  UNK2        0.0624
     40 H           2.2550    2.0467   -1.3649 H       2  UNK2        0.0337
     41 H           0.8032    1.4276   -2.3049 H       2  UNK2        0.0337
     42 H           1.0125    2.1203    0.6703 H       2  UNK2        0.0600
@<TRIPOS>BOND
     1     1     2    2
     2     2     3   am
     3     3     4    1
     4     4     5    1
     5     5     6    2
     6     5     7   am
     7     7     8    1
     8     8     9    1
     9     9    10   ar
    10    10    11   ar
    11    11    12   ar
    12    12    13    1
    13    12    14   ar
    14    14    15   ar
    15     8    16    1
    16    16    17   ar
    17    17    18   ar
    18    18    19   ar
    19    19    20   ar
    20    20    21   ar
    21    21    22   ar
    22    22    23   ar
    23    23    24   ar
    24    24    25    1
    25    25    26    1
    26    26     2    1
    27    26     7    1
    28    15     9   ar
    29    24    16   ar
    30    23    18   ar
    31     3    27    1
    32     4    28    1
    33     4    29    1
    34     8    30    1
    35    10    31    1
    36    11    32    1
    37    14    33    1
    38    15    34    1
    39    17    35    1
    40    19    36    1
    41    20    37    1
    42    21    38    1
    43    22    39    1
    44    25    40    1
    45    25    41    1
    46    26    42    1
@<TRIPOS>MOLECULE
118719635
 45 47 0 0 0
SMALL
GASTEIGER

@<TRIPOS>ATOM
      1 O           6.0833   -2.1726   -2.1529 O.2     1  UNL1       -0.2451
      2 C           5.8312   -1.0041   -1.8361 C.2     1  UNL1        0.3368
      3 O           6.6847    0.0256   -2.1928 O.3     1  UNL1       -0.4771
      4 C           4.6064   -0.6959   -1.0678 C.ar    1  UNL1        0.0589
      5 C           3.7560   -1.7018   -0.7097 C.ar    1  UNL1       -0.0459
      6 C           2.6004   -1.4135    0.0148 C.ar    1  UNL1       -0.0343
      7 C           2.2864   -0.1294    0.3850 C.ar    1  UNL1        0.1088
      8 S           0.7997    0.1609    1.3055 S.O2    1  UNL1        0.0762
      9 O           0.5677   -0.9692    2.2487 O.2     1  UNL1       -0.1497
     10 O           1.1087    1.3839    2.1655 O.2     1  UNL1       -0.1497
     11 N          -0.5127    0.4564    0.2284 N.pl3   1  UNL1       -0.1809
     12 C          -0.9151   -0.5318   -0.6929 C.3     1  UNL1        0.0615
     13 C          -1.9615   -1.4798   -0.4012 C.ar    1  UNL1       -0.0283
     14 C          -1.6459   -2.6263    0.3119 C.ar    1  UNL1       -0.0570
     15 C          -2.5714   -3.6156    0.6082 C.ar    1  UNL1       -0.0615
     16 C          -3.8723   -3.4646    0.1787 C.ar    1  UNL1       -0.0617
     17 C          -4.1895   -2.3235   -0.5320 C.ar    1  UNL1       -0.0615
     18 C          -3.2864   -1.3344   -0.8341 C.ar    1  UNL1       -0.0570
     19 C          -1.0874    1.7417    0.2248 C.ar    1  UNL1        0.1525
     20 N          -0.5562    2.5858   -0.7381 N.ar    1  UNL1       -0.2368
     21 C          -0.9784    3.8335   -0.8409 C.ar    1  UNL1        0.0481
     22 C          -1.9517    4.2984    0.0134 C.ar    1  UNL1        0.0597
     23 CL         -2.5230    5.9590   -0.1139 Cl      1  UNL1       -0.0820
     24 C          -2.4968    3.4980    0.9725 C.ar    1  UNL1       -0.0269
     25 C          -2.0481    2.1826    1.0775 C.ar    1  UNL1        0.0974
     26 C          -2.6111    1.3177    2.1224 C.3     1  UNL1        0.4207
     27 F          -1.6939    0.8165    3.0200 F       1  UNL1       -0.1658
     28 F          -3.4523    0.3398    1.7073 F       1  UNL1       -0.1658
     29 F          -3.4312    2.1343    2.9665 F       1  UNL1       -0.1658
     30 C           3.1464    0.8788    0.0214 C.ar    1  UNL1       -0.0343
     31 C           4.3083    0.5901   -0.7069 C.ar    1  UNL1       -0.0459
     32 H           7.5410   -0.1388   -2.6940 H       1  UNL1        0.2954
     33 H           4.0002   -2.7084   -0.9987 H       1  UNL1        0.0626
     34 H           1.9546   -2.2175    0.2810 H       1  UNL1        0.0637
     35 H          -1.2331   -0.0012   -1.6616 H       1  UNL1        0.0532
     36 H          -0.0045   -1.1245   -1.0454 H       1  UNL1        0.0532
     37 H          -0.6503   -2.8348    0.6864 H       1  UNL1        0.0621
     38 H          -2.3047   -4.5085    1.1693 H       1  UNL1        0.0618
     39 H          -4.6110   -4.2225    0.3978 H       1  UNL1        0.0618
     40 H          -5.2021   -2.1729   -0.8845 H       1  UNL1        0.0618
     41 H          -3.5385   -0.4412   -1.3915 H       1  UNL1        0.0621
     42 H          -0.5978    4.5307   -1.5727 H       1  UNL1        0.0845
     43 H          -3.2563    3.8209    1.6561 H       1  UNL1        0.0639
     44 H           2.9292    1.8941    0.2957 H       1  UNL1        0.0637
     45 H           4.9791    1.3841   -0.9893 H       1  UNL1        0.0626
@<TRIPOS>BOND
     1     1     2    2
     2     2     3    1
     3     2     4    1
     4     4     5   ar
     5     5     6   ar
     6     6     7   ar
     7     7     8    1
     8     8     9    2
     9     8    10    2
    10     8    11    1
    11    11    12    1
    12    12    13    1
    13    13    14   ar
    14    14    15   ar
    15    15    16   ar
    16    16    17   ar
    17    17    18   ar
    18    11    19    1
    19    19    20   ar
    20    20    21   ar
    21    21    22   ar
    22    22    23    1
    23    22    24   ar
    24    24    25   ar
    25    25    26    1
    26    26    27    1
    27    26    28    1
    28    26    29    1
    29     7    30   ar
    30    30    31   ar
    31    31     4   ar
    32    18    13   ar
    33    25    19   ar
    34     3    32    1
    35     5    33    1
    36     6    34    1
    37    12    35    1
    38    12    36    1
    39    14    37    1
    40    15    38    1
    41    16    39    1
    42    17    40    1
    43    18    41    1
    44    21    42    1
    45    24    43    1
    46    30    44    1
    47    31    45    1
@<TRIPOS>MOLECULE
51345598
 54 58 0 0 0
SMALL
GASTEIGER

@<TRIPOS>ATOM
      1 C           1.7340   -1.1899   -4.7112 C.3     1  UNL1        0.0817
      2 O           0.8912   -0.6911   -3.7140 O.3     1  UNL1       -0.4668
      3 C           0.8775   -1.1302   -2.4064 C.2     1  UNL1        0.3246
      4 O           1.6619   -2.0352   -2.0619 O.2     1  UNL1       -0.2491
      5 C          -0.0455   -0.5371   -1.4493 C.3     1  UNL1        0.1134
      6 C          -0.2324    0.9606   -1.5830 C.3     1  UNL1        0.0007
      7 C          -1.4168    1.2746   -0.7277 C.ar    1  UNL1       -0.0152
      8 C          -1.8603    0.4382    0.2553 C.ar    1  UNL1        0.0422
      9 N          -2.9580    1.0296    0.7959 N.ar    1  UNL1       -0.3562
     10 C          -3.1984    2.1917    0.1831 C.ar    1  UNL1        0.0470
     11 C          -4.1679    3.1831    0.3298 C.ar    1  UNL1       -0.0378
     12 C          -4.1413    4.2929   -0.4797 C.ar    1  UNL1       -0.0598
     13 C          -3.1792    4.4684   -1.4468 C.ar    1  UNL1       -0.0611
     14 C          -2.2210    3.5029   -1.6020 C.ar    1  UNL1       -0.0523
     15 C          -2.2447    2.3744   -0.7817 C.ar    1  UNL1        0.0032
     16 C          -1.2022   -0.8097    0.5586 C.3     1  UNL1        0.0773
     17 C          -1.1117   -1.1708    1.9984 C.ar    1  UNL1       -0.0245
     18 C          -1.3878   -0.3731    3.0540 C.ar    1  UNL1       -0.0567
     19 C          -1.2794   -0.8716    4.3596 C.ar    1  UNL1       -0.0614
     20 C          -0.8923   -2.1713    4.5833 C.ar    1  UNL1       -0.0617
     21 C          -0.6061   -2.9988    3.5196 C.ar    1  UNL1       -0.0614
     22 C          -0.7196   -2.4882    2.2470 C.ar    1  UNL1       -0.0567
     23 N           0.0773   -0.9580   -0.0922 N.3     1  UNL1       -0.2732
     24 C           1.0636   -0.3388    0.7145 C.3     1  UNL1        0.0258
     25 C           2.4727   -0.5732    0.3416 C.ar    1  UNL1       -0.0333
     26 C           3.2597    0.2259   -0.4414 C.ar    1  UNL1       -0.0573
     27 C           4.5877   -0.0859   -0.7436 C.ar    1  UNL1       -0.0615
     28 C           5.1626   -1.2320   -0.2533 C.ar    1  UNL1       -0.0617
     29 C           4.3961   -2.0563    0.5380 C.ar    1  UNL1       -0.0615
     30 C           3.0899   -1.7374    0.8275 C.ar    1  UNL1       -0.0573
     31 H           1.2450   -1.9587   -5.3456 H       1  UNL1        0.0661
     32 H           2.6724   -1.6285   -4.3366 H       1  UNL1        0.0661
     33 H           1.9585   -0.3325   -5.4104 H       1  UNL1        0.0661
     34 H          -1.0797   -0.9413   -1.7655 H       1  UNL1        0.0582
     35 H          -0.5459    1.1479   -2.6471 H       1  UNL1        0.0334
     36 H           0.6238    1.5732   -1.3743 H       1  UNL1        0.0334
     37 H          -3.5795    0.6597    1.5828 H       1  UNL1        0.1657
     38 H          -4.9079    3.0090    1.1013 H       1  UNL1        0.0638
     39 H          -4.9157    5.0342   -0.3267 H       1  UNL1        0.0618
     40 H          -3.1895    5.3762   -2.0809 H       1  UNL1        0.0618
     41 H          -1.4605    3.6110   -2.3445 H       1  UNL1        0.0624
     42 H          -1.8463   -1.6237    0.0614 H       1  UNL1        0.0577
     43 H          -1.6750    0.6415    2.8869 H       1  UNL1        0.0621
     44 H          -1.5077   -0.2078    5.1744 H       1  UNL1        0.0618
     45 H          -0.8043   -2.5709    5.5960 H       1  UNL1        0.0618
     46 H          -0.2986   -4.0310    3.7070 H       1  UNL1        0.0618
     47 H          -0.4835   -3.1777    1.4328 H       1  UNL1        0.0621
     48 H           0.8700   -0.6874    1.7754 H       1  UNL1        0.0476
     49 H           0.9440    0.7692    0.7986 H       1  UNL1        0.0476
     50 H           2.8239    1.1326   -0.8272 H       1  UNL1        0.0621
     51 H           5.1761    0.5642   -1.3617 H       1  UNL1        0.0618
     52 H           6.2101   -1.4936   -0.4820 H       1  UNL1        0.0618
     53 H           4.8583   -2.9616    0.9225 H       1  UNL1        0.0618
     54 H           2.5022   -2.3976    1.4515 H       1  UNL1        0.0621
@<TRIPOS>BOND
     1     1     2    1
     2     2     3    1
     3     3     4    2
     4     3     5    1
     5     5     6    1
     6     6     7    1
     7     7     8   ar
     8     8     9   ar
     9     9    10   ar
    10    10    11   ar
    11    11    12   ar
    12    12    13   ar
    13    13    14   ar
    14    14    15   ar
    15     8    16    1
    16    16    17    1
    17    17    18   ar
    18    18    19   ar
    19    19    20   ar
    20    20    21   ar
    21    21    22   ar
    22    16    23    1
    23    23    24    1
    24    24    25    1
    25    25    26   ar
    26    26    27   ar
    27    27    28   ar
    28    28    29   ar
    29    29    30   ar
    30    23     5    1
    31    30    25   ar
    32    15     7   ar
    33    22    17   ar
    34    15    10   ar
    35     1    31    1
    36     1    32    1
    37     1    33    1
    38     5    34    1
    39     6    35    1
    40     6    36    1
    41     9    37    1
    42    11    38    1
    43    12    39    1
    44    13    40    1
    45    14    41    1
    46    16    42    1
    47    18    43    1
    48    19    44    1
    49    20    45    1
    50    21    46    1
    51    22    47    1
    52    24    48    1
    53    24    49    1
    54    26    50    1
    55    27    51    1
    56    28    52    1
    57    29    53    1
    58    30    54    1
@<TRIPOS>MOLECULE
51135394
 50 54 0 0 0
SMALL
GASTEIGER

@<TRIPOS>ATOM
      1 O          -1.4274   -1.7323   -0.0226 O.2     1  UNL1       -0.2907
      2 C          -2.0906   -0.7098   -0.3263 C.2     1  UNL1        0.1770
      3 C          -1.4997    0.4259   -1.0848 C.3     1  UNL1        0.0629
      4 N          -0.1755    0.1461   -1.3699 N.3     1  UNL1       -0.2827
      5 C           0.0850   -0.8725   -2.3010 C.3     1  UNL1        0.0043
      6 C           1.4652   -1.4641   -2.2417 C.3     1  UNL1       -0.0125
      7 C           2.1673   -1.1504   -0.9785 C.ar    1  UNL1       -0.0160
      8 C           1.9109    0.0377   -0.3538 C.ar    1  UNL1        0.0421
      9 N           2.6337    0.1529    0.7681 N.ar    1  UNL1       -0.3562
     10 C           3.4005   -0.9645    0.9285 C.ar    1  UNL1        0.0470
     11 C           4.3114   -1.3875    1.8738 C.ar    1  UNL1       -0.0378
     12 C           4.8956   -2.6213    1.6801 C.ar    1  UNL1       -0.0598
     13 C           4.6114   -3.4335    0.6005 C.ar    1  UNL1       -0.0611
     14 C           3.7014   -3.0103   -0.3427 C.ar    1  UNL1       -0.0523
     15 C           3.1061   -1.7765   -0.1648 C.ar    1  UNL1        0.0032
     16 C           0.9059    0.9296   -1.0280 C.3     1  UNL1        0.0768
     17 C           0.6753    2.0909   -0.1507 C.ar    1  UNL1       -0.0245
     18 C           1.1994    3.2998   -0.5438 C.ar    1  UNL1       -0.0567
     19 C           1.0580    4.4562    0.1943 C.ar    1  UNL1       -0.0614
     20 C           0.3590    4.3819    1.3739 C.ar    1  UNL1       -0.0617
     21 C          -0.1677    3.1759    1.7725 C.ar    1  UNL1       -0.0614
     22 C          -0.0193    2.0343    1.0286 C.ar    1  UNL1       -0.0567
     23 C          -3.4811   -0.6804    0.1012 C.ar    1  UNL1        0.0187
     24 C          -4.2497    0.4099   -0.2050 C.ar    1  UNL1       -0.0512
     25 C          -5.5527    0.4462    0.1934 C.ar    1  UNL1       -0.0611
     26 C          -6.1335   -0.5899    0.9036 C.ar    1  UNL1       -0.0617
     27 C          -5.3660   -1.6970    1.2183 C.ar    1  UNL1       -0.0611
     28 C          -4.0629   -1.7153    0.8105 C.ar    1  UNL1       -0.0512
     29 H          -1.7232    1.4109   -0.6244 H       1  UNL1        0.0508
     30 H          -2.0609    0.4995   -2.0776 H       1  UNL1        0.0508
     31 H          -0.6450   -1.7204   -2.1974 H       1  UNL1        0.0430
     32 H          -0.0529   -0.5366   -3.3758 H       1  UNL1        0.0430
     33 H           2.1007   -1.0220   -3.0625 H       1  UNL1        0.0326
     34 H           1.4090   -2.5514   -2.4376 H       1  UNL1        0.0326
     35 H           2.6532    0.9470    1.4540 H       1  UNL1        0.1657
     36 H           4.5406   -0.7489    2.7307 H       1  UNL1        0.0638
     37 H           5.6112   -2.9701    2.4128 H       1  UNL1        0.0618
     38 H           5.0910   -4.4123    0.4670 H       1  UNL1        0.0618
     39 H           3.4484   -3.6139   -1.2045 H       1  UNL1        0.0624
     40 H           1.4249    1.2791   -1.9455 H       1  UNL1        0.0577
     41 H           1.7684    3.3928   -1.4909 H       1  UNL1        0.0621
     42 H           1.4952    5.3766   -0.1721 H       1  UNL1        0.0618
     43 H           0.2439    5.2849    1.9564 H       1  UNL1        0.0618
     44 H          -0.7288    3.1186    2.7211 H       1  UNL1        0.0618
     45 H          -0.4262    1.0781    1.3358 H       1  UNL1        0.0621
     46 H          -3.8353    1.2482   -0.7584 H       1  UNL1        0.0625
     47 H          -6.1483    1.3238   -0.0635 H       1  UNL1        0.0618
     48 H          -7.1628   -0.4845    1.1813 H       1  UNL1        0.0618
     49 H          -5.8346   -2.4955    1.7721 H       1  UNL1        0.0618
     50 H          -3.4286   -2.5858    1.0455 H       1  UNL1        0.0625
@<TRIPOS>BOND
     1     1     2    2
     2     2     3    1
     3     3     4    1
     4     4     5    1
     5     5     6    1
     6     6     7    1
     7     7     8   ar
     8     8     9   ar
     9     9    10   ar
    10    10    11   ar
    11    11    12   ar
    12    12    13   ar
    13    13    14   ar
    14    14    15   ar
    15     8    16    1
    16    16    17    1
    17    17    18   ar
    18    18    19   ar
    19    19    20   ar
    20    20    21   ar
    21    21    22   ar
    22     2    23    1
    23    23    24   ar
    24    24    25   ar
    25    25    26   ar
    26    26    27   ar
    27    27    28   ar
    28    16     4    1
    29    22    17   ar
    30    28    23   ar
    31    15     7   ar
    32    15    10   ar
    33     3    29    1
    34     3    30    1
    35     5    31    1
    36     5    32    1
    37     6    33    1
    38     6    34    1
    39     9    35    1
    40    11    36    1
    41    12    37    1
    42    13    38    1
    43    14    39    1
    44    16    40    1
    45    18    41    1
    46    19    42    1
    47    20    43    1
    48    21    44    1
    49    22    45    1
    50    24    46    1
    51    25    47    1
    52    26    48    1
    53    27    49    1
    54    28    50    1
@<TRIPOS>MOLECULE
51499679
 42 44 0 0 0
SMALL
GASTEIGER

@<TRIPOS>ATOM
      1 O           2.7353   -0.7328   -1.5328 O.2     1  UNL1       -0.2525
      2 C           2.1659   -0.1471   -0.5683 C.2     1  UNL1        0.3042
      3 N           2.8164    0.0642    0.6761 N.am    1  UNL1       -0.2685
      4 C           4.1493   -0.3785    0.8904 C.ar    1  UNL1        0.0488
      5 C           5.1860    0.4986    0.5834 C.ar    1  UNL1       -0.0394
      6 C           6.4926    0.1660    0.7537 C.ar    1  UNL1       -0.0599
      7 C           6.8169   -1.0848    1.2485 C.ar    1  UNL1       -0.0606
      8 C           5.7835   -1.9500    1.5510 C.ar    1  UNL1       -0.0460
      9 C           4.4608   -1.6196    1.3811 C.ar    1  UNL1        0.0391
     10 BR          3.0470   -2.8341    1.8071 Br      1  UNL1       -0.0484
     11 N           0.8269    0.2893   -0.8086 N.am    1  UNL1       -0.2947
     12 C           0.1495    0.0862   -2.0629 C.3     1  UNL1        0.0417
     13 C          -0.2799    1.4033   -2.6785 C.3     1  UNL1       -0.0172
     14 C          -1.6962    1.6145   -2.1944 C.3     1  UNL1        0.0153
     15 N          -2.0352    0.4295   -1.4611 N.pl3   1  UNL1       -0.3134
     16 C          -3.0458    0.3280   -0.4711 C.ar    1  UNL1        0.1213
     17 C          -3.3270   -0.8712    0.1460 C.ar    1  UNL1       -0.0212
     18 C          -4.3141   -0.9230    1.1017 C.ar    1  UNL1       -0.0454
     19 C          -5.0489    0.1815    1.4803 C.ar    1  UNL1        0.0730
     20 C          -6.1164    0.0941    2.5233 C.3     1  UNL1        0.4188
     21 F          -6.6536   -1.1662    2.5929 F       1  UNL1       -0.1658
     22 F          -5.6244    0.5034    3.7481 F       1  UNL1       -0.1658
     23 F          -7.1505    0.9784    2.1943 F       1  UNL1       -0.1658
     24 C          -4.7298    1.3571    0.8340 C.ar    1  UNL1        0.0413
     25 N          -3.7710    1.4065   -0.0940 N.ar    1  UNL1       -0.2398
     26 C          -1.1800   -0.6314   -1.8975 C.3     1  UNL1        0.0320
     27 H           2.3389    0.5476    1.4659 H       1  UNL1        0.1564
     28 H           4.9162    1.4915    0.1903 H       1  UNL1        0.0636
     29 H           7.2841    0.8704    0.5060 H       1  UNL1        0.0618
     30 H           7.8591   -1.3609    1.3884 H       1  UNL1        0.0618
     31 H           6.0100   -2.9389    1.9413 H       1  UNL1        0.0629
     32 H           0.3336    0.7743   -0.0313 H       1  UNL1        0.1506
     33 H           0.7683   -0.4353   -2.7933 H       1  UNL1        0.0515
     34 H          -0.3111    1.3278   -3.8013 H       1  UNL1        0.0299
     35 H           0.3981    2.2334   -2.4514 H       1  UNL1        0.0299
     36 H          -2.3891    1.8070   -3.0490 H       1  UNL1        0.0465
     37 H          -1.6804    2.5256   -1.5504 H       1  UNL1        0.0465
     38 H          -2.7702   -1.7791   -0.1214 H       1  UNL1        0.0652
     39 H          -4.5577   -1.8575    1.6059 H       1  UNL1        0.0625
     40 H          -5.2775    2.2632    1.0921 H       1  UNL1        0.0836
     41 H          -1.1051   -1.4959   -1.2329 H       1  UNL1        0.0482
     42 H          -1.4743   -1.0351   -2.9018 H       1  UNL1        0.0482
@<TRIPOS>BOND
     1     1     2    2
     2     2     3   am
     3     3     4    1
     4     4     5   ar
     5     5     6   ar
     6     6     7   ar
     7     7     8   ar
     8     8     9   ar
     9     9    10    1
    10     2    11   am
    11    11    12    1
    12    12    13    1
    13    13    14    1
    14    14    15    1
    15    15    16    1
    16    16    17   ar
    17    17    18   ar
    18    18    19   ar
    19    19    20    1
    20    20    21    1
    21    20    22    1
    22    20    23    1
    23    19    24   ar
    24    24    25   ar
    25    15    26    1
    26     9     4   ar
    27    26    12    1
    28    25    16   ar
    29     3    27    1
    30     5    28    1
    31     6    29    1
    32     7    30    1
    33     8    31    1
    34    11    32    1
    35    12    33    1
    36    13    34    1
    37    13    35    1
    38    14    36    1
    39    14    37    1
    40    17    38    1
    41    18    39    1
    42    24    40    1
    43    26    41    1
    44    26    42    1
@<TRIPOS>MOLECULE
51345608
 45 49 0 0 0
SMALL
GASTEIGER

@<TRIPOS>ATOM
      1 O          -1.0807   -0.9936    3.6525 O.2     2  UNK2       -0.2737
      2 C          -0.2878   -0.5906    2.7433 C.2     2  UNK2        0.2345
      3 N           1.0876   -0.8343    2.8725 N.am    1  PHE1       -0.3021
      4 CA          2.0217   -0.2102    1.9932 C.3     1  PHE1        0.1036
      5 CB          2.6996   -1.2922    1.1755 C.3     1  PHE1       -0.0007
      6 CG          3.6645   -0.6125    0.2730 C.ar    1  PHE1       -0.0451
      7 CD1         4.9634   -0.3757    0.6750 C.ar    1  PHE1       -0.0585
      8 CE1         5.8717    0.2528   -0.1493 C.ar    1  PHE1       -0.0615
      9 CZ          5.5212    0.6692   -1.4047 C.ar    1  PHE1       -0.0617
     10 CE2         4.2299    0.4441   -1.8293 C.ar    1  PHE1       -0.0615
     11 CD2         3.3153   -0.1919   -0.9918 C.ar    1  PHE1       -0.0585
     12 C           1.4214    0.8323    1.1426 C.2     1  PHE1        0.2372
     13 O           2.1325    1.8110    0.7857 O.2     1  PHE1       -0.2735
     14 N           0.0768    0.7387    0.7345 N.am    2  UNK2       -0.2823
     15 C          -0.3309    1.2686   -0.5411 C.3     2  UNK2        0.0559
     16 C          -1.7637    0.9097   -0.8528 C.ar    2  UNK2        0.0378
     17 N          -2.6633    1.4554   -1.6953 N.ar    2  UNK2       -0.3564
     18 C          -3.8273    0.7854   -1.6326 C.ar    2  UNK2        0.0470
     19 C          -5.0364    0.9694   -2.3039 C.ar    2  UNK2       -0.0378
     20 C          -6.0799    0.1106   -2.0308 C.ar    2  UNK2       -0.0598
     21 C          -5.9138   -0.9073   -1.1069 C.ar    2  UNK2       -0.0611
     22 C          -4.7356   -1.0943   -0.4462 C.ar    2  UNK2       -0.0523
     23 C          -3.6686   -0.2303   -0.7137 C.ar    2  UNK2        0.0032
     24 C          -2.3837   -0.1447   -0.2351 C.ar    2  UNK2       -0.0153
     25 C          -1.6180   -0.9321    0.7541 C.3     2  UNK2        0.0019
     26 C          -0.8861    0.1112    1.6090 C.3     2  UNK2        0.1066
     27 H           1.4262   -1.4793    3.6209 H       1  PHE1        0.1495
     28 HA          2.7802    0.3060    2.6565 H       1  PHE1        0.0598
     29 HB1         3.1927   -2.0321    1.8251 H       1  PHE1        0.0336
     30 HB2         1.9327   -1.8243    0.6000 H       1  PHE1        0.0336
     31 HD1         5.2223   -0.7190    1.6879 H       1  PHE1        0.0620
     32 HE1         6.8659    0.4054    0.2269 H       1  PHE1        0.0618
     33 HZ          6.2246    1.1722   -2.0814 H       1  PHE1        0.0618
     34 HE2         3.9479    0.7755   -2.8304 H       1  PHE1        0.0618
     35 HD2         2.3172   -0.3700   -1.3134 H       1  PHE1        0.0620
     36 H           0.2649    0.8585   -1.3618 H       2  UNK2        0.0529
     37 H          -0.2315    2.3776   -0.6055 H       2  UNK2        0.0529
     38 H          -2.4519    2.2855   -2.3003 H       2  UNK2        0.1656
     39 H          -5.1464    1.7726   -3.0240 H       2  UNK2        0.0638
     40 H          -7.0481    0.1971   -2.5175 H       2  UNK2        0.0618
     41 H          -6.7298   -1.5902   -0.8837 H       2  UNK2        0.0618
     42 H          -4.5593   -1.8756    0.2839 H       2  UNK2        0.0624
     43 H          -0.8259   -1.4735    0.1997 H       2  UNK2        0.0337
     44 H          -2.2481   -1.5876    1.3809 H       2  UNK2        0.0337
     45 H          -1.6630    0.8527    1.9566 H       2  UNK2        0.0600
@<TRIPOS>BOND
     1     1     2    2
     2     2     3   am
     3     3     4    1
     4     4     5    1
     5     5     6    1
     6     6     7   ar
     7     7     8   ar
     8     8     9   ar
     9     9    10   ar
    10    10    11   ar
    11     4    12    1
    12    12    13    2
    13    12    14   am
    14    14    15    1
    15    15    16    1
    16    16    17   ar
    17    17    18   ar
    18    18    19   ar
    19    19    20   ar
    20    20    21   ar
    21    21    22   ar
    22    22    23   ar
    23    23    24   ar
    24    24    25    1
    25    25    26    1
    26    26     2    1
    27    11     6   ar
    28    26    14    1
    29    24    16   ar
    30    23    18   ar
    31     3    27    1
    32     4    28    1
    33     5    29    1
    34     5    30    1
    35     7    31    1
    36     8    32    1
    37     9    33    1
    38    10    34    1
    39    11    35    1
    40    15    36    1
    41    15    37    1
    42    17    38    1
    43    19    39    1
    44    20    40    1
    45    21    41    1
    46    22    42    1
    47    25    43    1
    48    25    44    1
    49    26    45    1
@<TRIPOS>MOLECULE
50342170
 55 59 0 0 0
SMALL
GASTEIGER

@<TRIPOS>ATOM
      1 C           2.2607    0.8901   -1.9169 C.3     1  UNL1       -0.0422
      2 C           0.9316    1.5495   -1.7292 C.3     1  UNL1        0.0490
      3 C           0.9646    2.8466   -1.0699 C.ar    1  UNL1       -0.0271
      4 C           2.0932    3.5832   -0.7858 C.ar    1  UNL1       -0.0541
      5 C           2.0524    4.8114   -0.1446 C.ar    1  UNL1       -0.0261
      6 C           0.8572    5.3450    0.2367 C.ar    1  UNL1        0.1234
      7 F           0.7831    6.5463    0.8675 F       1  UNL1       -0.2055
      8 C          -0.3097    4.6364   -0.0304 C.ar    1  UNL1       -0.0261
      9 C          -0.2395    3.4103   -0.6725 C.ar    1  UNL1       -0.0541
     10 N          -0.0273    0.6906   -1.0127 N.am    1  UNL1       -0.2864
     11 C           0.1310    0.3503    0.3586 C.3     1  UNL1        0.0406
     12 C           0.9421   -0.8345    0.6700 C.ar    1  UNL1       -0.0294
     13 C           0.3471   -2.0761    0.7601 C.ar    1  UNL1       -0.0570
     14 C           1.1067   -3.2158    1.0569 C.ar    1  UNL1       -0.0608
     15 C           2.4623   -3.1017    1.2626 C.ar    1  UNL1       -0.0509
     16 C           3.0940   -1.8686    1.1801 C.ar    1  UNL1        0.0230
     17 C           4.5331   -1.7663    1.3945 C.ar    1  UNL1        0.2043
     18 N           5.2322   -2.3930    2.3475 N.ar    1  UNL1       -0.1080
     19 N           6.5159   -2.0471    2.2120 N.ar    1  UNL1       -0.0485
     20 N           6.6400   -1.2226    1.2031 N.ar    1  UNL1       -0.1761
     21 N           5.4282   -1.0485    0.7009 N.ar    1  UNL1       -0.1331
     22 C           2.3072   -0.7791    0.8871 C.ar    1  UNL1       -0.0462
     23 C          -1.1407    0.2209   -1.7337 C.2     1  UNL1        0.2489
     24 O          -1.2394    0.5668   -2.9596 O.2     1  UNL1       -0.2699
     25 C          -2.2052   -0.6162   -1.2572 C.ar    1  UNL1        0.0556
     26 C          -2.3329   -1.8893   -1.7504 C.ar    1  UNL1        0.0404
     27 N          -3.3276   -2.6698   -1.3111 N.ar    1  UNL1       -0.2542
     28 C          -4.2016   -2.2283   -0.3958 C.ar    1  UNL1        0.0710
     29 C          -5.2179   -3.0774    0.0287 C.ar    1  UNL1       -0.0357
     30 C          -6.1453   -2.6895    0.9609 C.ar    1  UNL1       -0.0597
     31 C          -6.0532   -1.4168    1.4814 C.ar    1  UNL1       -0.0611
     32 C          -5.0582   -0.5749    1.0722 C.ar    1  UNL1       -0.0525
     33 C          -4.1395   -0.9741    0.1415 C.ar    1  UNL1        0.0011
     34 C          -3.0968   -0.1640   -0.3238 C.ar    1  UNL1       -0.0390
     35 H           2.6417    1.0980   -2.9635 H       1  UNL1        0.0251
     36 H           3.0668    1.1947   -1.2651 H       1  UNL1        0.0251
     37 H           2.0775   -0.2122   -1.9297 H       1  UNL1        0.0251
     38 H           0.5370    1.6950   -2.7633 H       1  UNL1        0.0548
     39 H           3.0422    3.2052   -1.0675 H       1  UNL1        0.0622
     40 H           2.9573    5.3496    0.0549 H       1  UNL1        0.0646
     41 H          -1.2574    5.0807    0.2838 H       1  UNL1        0.0646
     42 H          -1.1943    2.9182   -0.8465 H       1  UNL1        0.0622
     43 H          -0.8828    0.1664    0.7913 H       1  UNL1        0.0514
     44 H           0.6007    1.2126    0.8848 H       1  UNL1        0.0514
     45 H          -0.7232   -2.1846    0.6097 H       1  UNL1        0.0621
     46 H           0.5853   -4.1444    1.1100 H       1  UNL1        0.0618
     47 H           3.0088   -4.0066    1.4901 H       1  UNL1        0.0625
     48 H           7.5089   -0.7529    0.8162 H       1  UNL1        0.2143
     49 H           2.8046    0.1764    0.8332 H       1  UNL1        0.0628
     50 H          -1.6141   -2.2674   -2.5078 H       1  UNL1        0.0837
     51 H          -5.2986   -4.0797   -0.3750 H       1  UNL1        0.0639
     52 H          -6.9457   -3.3747    1.2897 H       1  UNL1        0.0618
     53 H          -6.8061   -1.1313    2.2246 H       1  UNL1        0.0618
     54 H          -4.9930    0.4259    1.4880 H       1  UNL1        0.0624
     55 H          -3.0637    0.8374    0.1133 H       1  UNL1        0.0632
@<TRIPOS>BOND
     1     1     2    1
     2     2     3    1
     3     3     4   ar
     4     4     5   ar
     5     5     6   ar
     6     6     7    1
     7     6     8   ar
     8     8     9   ar
     9     2    10    1
    10    10    11    1
    11    11    12    1
    12    12    13   ar
    13    13    14   ar
    14    14    15   ar
    15    15    16   ar
    16    16    17    1
    17    17    18   ar
    18    18    19   ar
    19    19    20   ar
    20    20    21   ar
    21    16    22   ar
    22    10    23   am
    23    23    24    2
    24    23    25    1
    25    25    26   ar
    26    26    27   ar
    27    27    28   ar
    28    28    29   ar
    29    29    30   ar
    30    30    31   ar
    31    31    32   ar
    32    32    33   ar
    33    33    34   ar
    34     9     3   ar
    35    22    12   ar
    36    34    25   ar
    37    21    17   ar
    38    33    28   ar
    39     1    35    1
    40     1    36    1
    41     1    37    1
    42     2    38    1
    43     4    39    1
    44     5    40    1
    45     8    41    1
    46     9    42    1
    47    11    43    1
    48    11    44    1
    49    13    45    1
    50    14    46    1
    51    15    47    1
    52    20    48    1
    53    22    49    1
    54    26    50    1
    55    29    51    1
    56    30    52    1
    57    31    53    1
    58    32    54    1
    59    34    55    1
@<TRIPOS>MOLECULE
50934310
 45 48 0 0 0
SMALL
GASTEIGER

@<TRIPOS>ATOM
      1 O          -1.6444    0.8032    1.4591 O.2     1  UNL1       -0.2523
      2 C          -1.5425    0.2128    0.3273 C.2     1  UNL1        0.3072
      3 N          -2.6208   -0.5641   -0.1784 N.am    1  UNL1       -0.2693
      4 C          -3.8362   -0.7215    0.5281 C.ar    1  UNL1        0.0349
      5 C          -3.9907   -1.7603    1.4144 C.ar    1  UNL1       -0.0391
      6 C          -5.1546   -1.9582    2.1278 C.ar    1  UNL1       -0.0416
      7 C          -6.2045   -1.0813    1.9461 C.ar    1  UNL1        0.0411
      8 CL         -7.6673   -1.3604    2.8664 Cl      1  UNL1       -0.0835
      9 C          -6.0909   -0.0143    1.0574 C.ar    1  UNL1       -0.0416
     10 C          -4.9112    0.1526    0.3606 C.ar    1  UNL1       -0.0391
     11 N          -0.3553    0.3246   -0.4373 N.am    1  UNL1       -0.2740
     12 C          -0.2489   -0.3370   -1.6994 C.3     1  UNL1        0.0215
     13 C           0.9324    0.1387   -2.5134 C.3     1  UNL1       -0.0052
     14 C           1.1120    1.5762   -2.2332 C.ar    1  UNL1       -0.0035
     15 S           1.4571    2.9082   -3.2931 S.2     1  UNL1       -0.1012
     16 C           1.4820    4.2215   -2.0047 C.ar    1  UNL1       -0.0237
     17 C           1.2183    3.4707   -0.8953 C.ar    1  UNL1       -0.0492
     18 C           1.0325    2.1522   -0.9993 C.ar    1  UNL1       -0.0123
     19 C           0.7289    1.1192    0.0957 C.3     1  UNL1        0.0787
     20 C           1.9554    0.3107    0.3112 C.ar    1  UNL1       -0.0225
     21 C           1.9119   -0.9325    0.9039 C.ar    1  UNL1       -0.0559
     22 C           3.0434   -1.6961    1.1112 C.ar    1  UNL1       -0.0498
     23 C           4.2725   -1.2253    0.7228 C.ar    1  UNL1        0.0548
     24 C           5.5274   -2.0233    0.9296 C.3     1  UNL1        0.4174
     25 F           5.6859   -2.7944   -0.2082 F       1  UNL1       -0.1659
     26 F           6.6140   -1.1543    0.9808 F       1  UNL1       -0.1659
     27 F           5.4318   -2.7633    2.0736 F       1  UNL1       -0.1659
     28 C           4.3494    0.0167    0.1261 C.ar    1  UNL1       -0.0498
     29 C           3.1979    0.7687   -0.0730 C.ar    1  UNL1       -0.0559
     30 H          -2.5232   -1.0361   -1.0963 H       1  UNL1        0.1564
     31 H          -3.1853   -2.4599    1.5748 H       1  UNL1        0.0636
     32 H          -5.2621   -2.7884    2.8285 H       1  UNL1        0.0633
     33 H          -6.9464    0.6350    0.9603 H       1  UNL1        0.0633
     34 H          -4.8192    0.9789   -0.3296 H       1  UNL1        0.0636
     35 H          -0.1546   -1.4291   -1.5210 H       1  UNL1        0.0469
     36 H          -1.1476   -0.2060   -2.3526 H       1  UNL1        0.0469
     37 H           0.7238    0.0287   -3.5968 H       1  UNL1        0.0334
     38 H           1.8166   -0.4764   -2.2975 H       1  UNL1        0.0334
     39 H           1.6675    5.2679   -2.2042 H       1  UNL1        0.0693
     40 H           1.1634    3.9940    0.1008 H       1  UNL1        0.0626
     41 H           0.4409    1.6163    1.0316 H       1  UNL1        0.0602
     42 H           0.9428   -1.3282    1.2218 H       1  UNL1        0.0621
     43 H           2.9545   -2.6643    1.5803 H       1  UNL1        0.0623
     44 H           5.3315    0.3605   -0.1690 H       1  UNL1        0.0623
     45 H           3.3118    1.7174   -0.5363 H       1  UNL1        0.0621
@<TRIPOS>BOND
     1     1     2    2
     2     2     3   am
     3     3     4    1
     4     4     5   ar
     5     5     6   ar
     6     6     7   ar
     7     7     8    1
     8     7     9   ar
     9     9    10   ar
    10     2    11   am
    11    11    12    1
    12    12    13    1
    13    13    14    1
    14    14    15   ar
    15    15    16   ar
    16    16    17   ar
    17    17    18   ar
    18    18    19    1
    19    19    20    1
    20    20    21   ar
    21    21    22   ar
    22    22    23   ar
    23    23    24    1
    24    24    25    1
    25    24    26    1
    26    24    27    1
    27    23    28   ar
    28    28    29   ar
    29    10     4   ar
    30    19    11    1
    31    29    20   ar
    32    18    14   ar
    33     3    30    1
    34     5    31    1
    35     6    32    1
    36     9    33    1
    37    10    34    1
    38    12    35    1
    39    12    36    1
    40    13    37    1
    41    13    38    1
    42    16    39    1
    43    17    40    1
    44    19    41    1
    45    21    42    1
    46    22    43    1
    47    28    44    1
    48    29    45    1
@<TRIPOS>MOLECULE
171357012
 33 34 0 0 0
SMALL
GASTEIGER

@<TRIPOS>ATOM
      1 C          -6.1507    0.0750    0.1422 C.3     1  UNL1       -0.0393
      2 C          -4.6560   -0.2489    0.0478 C.3     1  UNL1        0.0707
      3 O          -3.9955    0.7957    0.6906 O.3     1  UNL1       -0.2774
      4 N          -2.6770    0.5567    0.6336 N.am    1  UNL1       -0.1795
      5 C          -2.0381   -0.1967    1.6880 C.3     1  UNL1        0.0308
      6 C          -1.9239    1.0430   -0.4560 C.2     1  UNL1        0.2809
      7 O          -2.5197    1.6930   -1.3501 O.2     1  UNL1       -0.2671
      8 C          -0.5161    0.8497   -0.6219 C.ar    1  UNL1        0.1392
      9 S           0.5841   -0.0350    0.4939 S.2     1  UNL1       -0.0587
     10 C           2.0511    0.2281   -0.4674 C.ar    1  UNL1        0.1129
     11 C           3.3979   -0.2657   -0.1017 C.ar    1  UNL1        0.0100
     12 C           4.3924    0.0497   -0.9860 C.ar    1  UNL1       -0.0519
     13 C           5.6931   -0.3751   -0.7213 C.ar    1  UNL1       -0.0584
     14 C           5.9279   -1.1048    0.4347 C.ar    1  UNL1       -0.0264
     15 C           4.8997   -1.4047    1.3047 C.ar    1  UNL1        0.1240
     16 F           5.1573   -2.1279    2.4418 F       1  UNL1       -0.2055
     17 C           3.6069   -0.9785    1.0348 C.ar    1  UNL1       -0.0168
     18 N           1.6074    0.8978   -1.4486 N.ar    1  UNL1       -0.2047
     19 C           0.3669    1.2314   -1.5796 C.ar    1  UNL1        0.2328
     20 O          -0.0956    1.9853   -2.6970 O.3     1  UNL1       -0.4915
     21 H          -6.2536    1.1552   -0.0973 H       1  UNL1        0.0252
     22 H          -6.4327   -0.0179    1.2230 H       1  UNL1        0.0252
     23 H          -6.7446   -0.5683   -0.5149 H       1  UNL1        0.0252
     24 H          -4.4260   -1.2393    0.4780 H       1  UNL1        0.0581
     25 H          -4.3411   -0.2285   -1.0220 H       1  UNL1        0.0581
     26 H          -1.5825   -1.1315    1.2847 H       1  UNL1        0.0453
     27 H          -1.2606    0.4119    2.2174 H       1  UNL1        0.0453
     28 H          -2.7538   -0.5214    2.4688 H       1  UNL1        0.0453
     29 H           4.2489    0.6147   -1.8947 H       1  UNL1        0.0624
     30 H           6.5160   -0.1597   -1.3757 H       1  UNL1        0.0619
     31 H           6.9430   -1.4559    0.6746 H       1  UNL1        0.0646
     32 H           2.7862   -1.1914    1.6841 H       1  UNL1        0.0653
     33 H           0.1887    1.6642   -3.6069 H       1  UNL1        0.2938
@<TRIPOS>BOND
     1     1     2    1
     2     2     3    1
     3     3     4    1
     4     4     5    1
     5     4     6   am
     6     6     7    2
     7     6     8    1
     8     8     9   ar
     9     9    10   ar
    10    10    11    1
    11    11    12   ar
    12    12    13   ar
    13    13    14   ar
    14    14    15   ar
    15    15    16    1
    16    15    17   ar
    17    10    18   ar
    18    18    19   ar
    19    19    20    1
    20    19     8   ar
    21    17    11   ar
    22     1    21    1
    23     1    22    1
    24     1    23    1
    25     2    24    1
    26     2    25    1
    27     5    26    1
    28     5    27    1
    29     5    28    1
    30    12    29    1
    31    13    30    1
    32    14    31    1
    33    17    32    1
    34    20    33    1
@<TRIPOS>MOLECULE
50934289
 42 45 0 0 0
SMALL
GASTEIGER

@<TRIPOS>ATOM
      1 O           0.5314   -1.1505   -0.1827 O.2     1  UNL1       -0.2523
      2 C           0.7729    0.0434   -0.4282 C.2     1  UNL1        0.3072
      3 N           2.1126    0.4776   -0.4438 N.am    1  UNL1       -0.2693
      4 C           3.2676   -0.2929   -0.2097 C.ar    1  UNL1        0.0348
      5 C           4.5242    0.3342   -0.2719 C.ar    1  UNL1       -0.0404
      6 C           5.7018   -0.3210   -0.0614 C.ar    1  UNL1       -0.0600
      7 C           5.6988   -1.6584    0.2275 C.ar    1  UNL1       -0.0616
      8 C           4.5167   -2.3218    0.3018 C.ar    1  UNL1       -0.0600
      9 C           3.3113   -1.6340    0.0827 C.ar    1  UNL1       -0.0404
     10 N          -0.3447    0.9335   -0.6870 N.am    1  UNL1       -0.2740
     11 C           0.0395    2.2869   -1.0079 C.3     1  UNL1        0.0215
     12 C          -1.1870    3.0771   -1.5099 C.3     1  UNL1       -0.0052
     13 C          -2.2309    2.9068   -0.4692 C.ar    1  UNL1       -0.0035
     14 S          -3.3006    3.9755    0.4333 S.2     1  UNL1       -0.1012
     15 C          -4.1152    2.6513    1.4532 C.ar    1  UNL1       -0.0237
     16 C          -3.4767    1.5592    0.9842 C.ar    1  UNL1       -0.0492
     17 C          -2.5368    1.6363    0.0326 C.ar    1  UNL1       -0.0123
     18 C          -1.7047    0.5409   -0.6567 C.3     1  UNL1        0.0787
     19 C          -2.0199   -0.7423   -0.0343 C.ar    1  UNL1       -0.0225
     20 C          -1.6730   -1.0549    1.2498 C.ar    1  UNL1       -0.0565
     21 C          -1.9991   -2.2995    1.7974 C.ar    1  UNL1       -0.0614
     22 C          -2.6771   -3.2467    1.0651 C.ar    1  UNL1       -0.0617
     23 C          -3.0246   -2.9268   -0.2288 C.ar    1  UNL1       -0.0614
     24 C          -2.6980   -1.6960   -0.7592 C.ar    1  UNL1       -0.0565
     25 H           2.2757    1.5138   -0.6552 H       1  UNL1        0.1564
     26 H           4.5544    1.4093   -0.5025 H       1  UNL1        0.0636
     27 H           6.6474    0.1795   -0.1143 H       1  UNL1        0.0618
     28 H           6.6019   -2.2354    0.4050 H       1  UNL1        0.0618
     29 H           4.4284   -3.3895    0.5275 H       1  UNL1        0.0618
     30 H           2.3852   -2.1765    0.1458 H       1  UNL1        0.0636
     31 H           0.3549    2.7832   -0.0728 H       1  UNL1        0.0469
     32 H           0.8361    2.3698   -1.7637 H       1  UNL1        0.0469
     33 H          -0.9299    4.1318   -1.5764 H       1  UNL1        0.0334
     34 H          -1.5705    2.6222   -2.4447 H       1  UNL1        0.0334
     35 H          -4.8420    2.8577    2.1477 H       1  UNL1        0.0693
     36 H          -3.7845    0.5596    1.4467 H       1  UNL1        0.0626
     37 H          -2.0716    0.5610   -1.7247 H       1  UNL1        0.0602
     38 H          -1.1422   -0.3205    1.8323 H       1  UNL1        0.0621
     39 H          -1.7191   -2.5345    2.8140 H       1  UNL1        0.0618
     40 H          -2.9313   -4.2175    1.4930 H       1  UNL1        0.0618
     41 H          -3.5688   -3.6624   -0.8444 H       1  UNL1        0.0618
     42 H          -3.0127   -1.5295   -1.7904 H       1  UNL1        0.0621
@<TRIPOS>BOND
     1     1     2    2
     2     2     3   am
     3     3     4    1
     4     4     5   ar
     5     5     6   ar
     6     6     7   ar
     7     7     8   ar
     8     8     9   ar
     9     2    10   am
    10    10    11    1
    11    11    12    1
    12    12    13    1
    13    13    14   ar
    14    14    15   ar
    15    15    16   ar
    16    16    17   ar
    17    17    18    1
    18    18    19    1
    19    19    20   ar
    20    20    21   ar
    21    21    22   ar
    22    22    23   ar
    23    23    24   ar
    24     9     4   ar
    25    18    10    1
    26    24    19   ar
    27    17    13   ar
    28     3    25    1
    29     5    26    1
    30     6    27    1
    31     7    28    1
    32     8    29    1
    33     9    30    1
    34    11    31    1
    35    11    32    1
    36    12    33    1
    37    12    34    1
    38    15    35    1
    39    16    36    1
    40    18    37    1
    41    20    38    1
    42    21    39    1
    43    22    40    1
    44    23    41    1
    45    24    42    1
@<TRIPOS>MOLECULE
51366417
 49 51 0 0 0
SMALL
GASTEIGER

@<TRIPOS>ATOM
      1 C          -0.2379   -0.8494    2.2313 C.3     1  UNL1       -0.0422
      2 C          -0.7809   -0.5806    0.8613 C.3     1  UNL1        0.0499
      3 C          -1.3890   -1.7581    0.2252 C.ar    1  UNL1       -0.0216
      4 C          -1.9877   -1.6176   -0.9990 C.ar    1  UNL1       -0.0185
      5 C          -2.5989   -2.6997   -1.6472 C.ar    1  UNL1        0.1616
      6 F          -3.2046   -2.5926   -2.8514 F       1  UNL1       -0.2024
      7 C          -2.6015   -3.9530   -1.0415 C.ar    1  UNL1        0.1933
      8 F          -3.1960   -5.0293   -1.6511 F       1  UNL1       -0.1995
      9 C          -1.9887   -4.0526    0.1867 C.ar    1  UNL1        0.1616
     10 F          -1.9677   -5.2615    0.8008 F       1  UNL1       -0.2024
     11 C          -1.3837   -2.9835    0.8305 C.ar    1  UNL1       -0.0185
     12 N           0.1322    0.1547   -0.0046 N.am    1  UNL1       -0.2751
     13 C          -0.2163    1.4742   -0.3779 C.2     1  UNL1        0.2480
     14 O           0.5143    2.1504   -1.1028 O.2     1  UNL1       -0.2699
     15 C          -1.4508    2.0544    0.0914 C.ar    1  UNL1        0.0369
     16 C          -1.6248    2.4913    1.3965 C.ar    1  UNL1       -0.0496
     17 C          -2.8051    3.0402    1.8350 C.ar    1  UNL1       -0.0610
     18 C          -3.8692    3.1802    0.9959 C.ar    1  UNL1       -0.0617
     19 C          -3.7191    2.7491   -0.3165 C.ar    1  UNL1       -0.0610
     20 C          -2.5352    2.2000   -0.7535 C.ar    1  UNL1       -0.0496
     21 C           1.3382   -0.4250   -0.5201 C.3     1  UNL1        0.1280
     22 C           1.3731   -0.5799   -1.9947 C.2     1  UNL1        0.2356
     23 N           2.4929   -1.2547   -2.5568 N.am    1  UNL1       -0.3275
     24 O           0.4735   -0.1496   -2.7512 O.2     1  UNL1       -0.2736
     25 C           2.6064    0.2913   -0.1604 C.ar    1  UNL1       -0.0182
     26 C           3.2350    1.1175   -1.0706 C.ar    1  UNL1       -0.0563
     27 C           4.4308    1.7261   -0.7589 C.ar    1  UNL1       -0.0614
     28 C           5.0533    1.5485    0.4536 C.ar    1  UNL1       -0.0617
     29 C           4.4034    0.7159    1.3491 C.ar    1  UNL1       -0.0614
     30 C           3.2137    0.1019    1.0585 C.ar    1  UNL1       -0.0563
     31 H          -0.9462   -1.4403    2.8557 H       1  UNL1        0.0251
     32 H           0.7140   -1.3734    2.2838 H       1  UNL1        0.0251
     33 H          -0.1155    0.1271    2.7861 H       1  UNL1        0.0251
     34 H          -1.6705    0.1085    1.0508 H       1  UNL1        0.0548
     35 H          -2.0319   -0.6748   -1.5546 H       1  UNL1        0.0650
     36 H          -0.9224   -3.1672    1.8054 H       1  UNL1        0.0650
     37 H          -0.7651    2.3706    2.0536 H       1  UNL1        0.0625
     38 H          -2.8734    3.3559    2.8597 H       1  UNL1        0.0618
     39 H          -4.8308    3.6084    1.2874 H       1  UNL1        0.0618
     40 H          -4.5898    2.8688   -0.9872 H       1  UNL1        0.0618
     41 H          -2.4369    1.8689   -1.7894 H       1  UNL1        0.0625
     42 H           1.4649   -1.4863   -0.1316 H       1  UNL1        0.0648
     43 H           2.4480   -2.2930   -2.7927 H       1  UNL1        0.1450
     44 H           3.4126   -0.8265   -2.7818 H       1  UNL1        0.1450
     45 H           2.8136    1.3103   -2.0699 H       1  UNL1        0.0621
     46 H           4.9156    2.3662   -1.4687 H       1  UNL1        0.0618
     47 H           6.0029    2.0260    0.7013 H       1  UNL1        0.0618
     48 H           4.9116    0.5688    2.3196 H       1  UNL1        0.0618
     49 H           2.7897   -0.5270    1.8147 H       1  UNL1        0.0621
@<TRIPOS>BOND
     1     1     2    1
     2     2     3    1
     3     3     4   ar
     4     4     5   ar
     5     5     6    1
     6     5     7   ar
     7     7     8    1
     8     7     9   ar
     9     9    10    1
    10     9    11   ar
    11     2    12    1
    12    12    13   am
    13    13    14    2
    14    13    15    1
    15    15    16   ar
    16    16    17   ar
    17    17    18   ar
    18    18    19   ar
    19    19    20   ar
    20    12    21    1
    21    21    22    1
    22    22    23   am
    23    22    24    2
    24    21    25    1
    25    25    26   ar
    26    26    27   ar
    27    27    28   ar
    28    28    29   ar
    29    29    30   ar
    30    11     3   ar
    31    20    15   ar
    32    30    25   ar
    33     1    31    1
    34     1    32    1
    35     1    33    1
    36     2    34    1
    37     4    35    1
    38    11    36    1
    39    16    37    1
    40    17    38    1
    41    18    39    1
    42    19    40    1
    43    20    41    1
    44    21    42    1
    45    23    43    1
    46    23    44    1
    47    26    45    1
    48    27    46    1
    49    28    47    1
    50    29    48    1
    51    30    49    1
@<TRIPOS>MOLECULE
50543019
 47 49 0 0 0
SMALL
GASTEIGER

@<TRIPOS>ATOM
      1 C           5.7553   -0.1733    0.3220 C.3     1  UNL1        0.0788
      2 O           4.4631    0.1542   -0.0511 O.3     1  UNL1       -0.4951
      3 C           3.3333   -0.6408    0.0338 C.ar    1  UNL1        0.1204
      4 C           3.4287   -1.9133    0.5361 C.ar    1  UNL1       -0.0199
      5 C           2.3120   -2.7122    0.6253 C.ar    1  UNL1       -0.0580
      6 C           1.0850   -2.2182    0.2011 C.ar    1  UNL1       -0.0568
      7 C           0.9472   -0.9509   -0.3068 C.ar    1  UNL1       -0.0266
      8 C          -0.3301   -0.4604   -0.7789 C.3     1  UNL1        0.0412
      9 N          -1.2693    0.1077    0.1149 N.am    1  UNL1       -0.2772
     10 C          -2.3109   -0.7745    0.5808 C.2     1  UNL1        0.2544
     11 O          -3.1564   -0.2815    1.3981 O.2     1  UNL1       -0.2694
     12 C          -2.5027   -2.1422    0.2263 C.ar    1  UNL1        0.0741
     13 C          -2.4952   -3.2754    0.9835 C.ar    1  UNL1       -0.0425
     14 C          -2.7146   -4.4636    0.4422 C.ar    1  UNL1       -0.0540
     15 C          -2.9563   -4.5392   -0.9317 C.ar    1  UNL1       -0.0236
     16 S          -2.8496   -2.7986   -1.3993 S.2     1  UNL1       -0.0921
     17 C          -1.3555    1.4571    0.6101 C.3     1  UNL1        0.1278
     18 C          -0.3079    1.7828    1.6407 C.2     1  UNL1        0.2356
     19 N           0.5656    0.8506    2.2251 N.am    1  UNL1       -0.3275
     20 O          -0.2222    2.9833    1.9967 O.2     1  UNL1       -0.2736
     21 C          -1.4810    2.5299   -0.3704 C.ar    1  UNL1       -0.0182
     22 C          -2.6951    3.2332   -0.4062 C.ar    1  UNL1       -0.0563
     23 C          -2.9183    4.2784   -1.2660 C.ar    1  UNL1       -0.0614
     24 C          -1.9262    4.6726   -2.1395 C.ar    1  UNL1       -0.0617
     25 C          -0.7344    3.9751   -2.0971 C.ar    1  UNL1       -0.0614
     26 C          -0.5063    2.9296   -1.2389 C.ar    1  UNL1       -0.0563
     27 C           2.0867   -0.1850   -0.3792 C.ar    1  UNL1       -0.0153
     28 H           5.9954   -1.2374    0.2149 H       1  UNL1        0.0660
     29 H           5.9604    0.2275    1.3379 H       1  UNL1        0.0660
     30 H           6.4413    0.3591   -0.4044 H       1  UNL1        0.0660
     31 H           4.3978   -2.2956    0.8693 H       1  UNL1        0.0654
     32 H           2.4066   -3.7299    1.0301 H       1  UNL1        0.0619
     33 H           0.2416   -2.9157    0.2973 H       1  UNL1        0.0621
     34 H          -0.8541   -1.3259   -1.3251 H       1  UNL1        0.0514
     35 H          -0.2193    0.2650   -1.6523 H       1  UNL1        0.0514
     36 H          -2.2975   -3.1676    2.0835 H       1  UNL1        0.0630
     37 H          -2.7246   -5.4507    1.0042 H       1  UNL1        0.0623
     38 H          -3.1542   -5.3664   -1.5741 H       1  UNL1        0.0693
     39 H          -2.3008    1.4896    1.2557 H       1  UNL1        0.0648
     40 H           1.5934    0.9956    2.3374 H       1  UNL1        0.1450
     41 H           0.1231   -0.0503    2.5643 H       1  UNL1        0.1450
     42 H          -3.5268    2.9681    0.2650 H       1  UNL1        0.0621
     43 H          -3.8749    4.8140   -1.2759 H       1  UNL1        0.0618
     44 H          -2.0512    5.4969   -2.8441 H       1  UNL1        0.0618
     45 H           0.0742    4.2679   -2.7826 H       1  UNL1        0.0618
     46 H           0.4428    2.4081   -1.2062 H       1  UNL1        0.0621
     47 H           2.0819    0.8225   -0.7663 H       1  UNL1        0.0657
@<TRIPOS>BOND
     1     1     2    1
     2     2     3    1
     3     3     4   ar
     4     4     5   ar
     5     5     6   ar
     6     6     7   ar
     7     7     8    1
     8     8     9    1
     9     9    10   am
    10    10    11    2
    11    10    12    1
    12    12    13   ar
    13    13    14   ar
    14    14    15   ar
    15    15    16   ar
    16     9    17    1
    17    17    18    1
    18    18    19   am
    19    18    20    2
    20    17    21    1
    21    21    22   ar
    22    22    23   ar
    23    23    24   ar
    24    24    25   ar
    25    25    26   ar
    26     7    27   ar
    27    27     3   ar
    28    16    12   ar
    29    26    21   ar
    30     1    28    1
    31     1    29    1
    32     1    30    1
    33     4    31    1
    34     5    32    1
    35     6    33    1
    36     8    34    1
    37     8    35    1
    38    13    36    1
    39    14    37    1
    40    15    38    1
    41    17    39    1
    42    19    40    1
    43    19    41    1
    44    22    42    1
    45    23    43    1
    46    24    44    1
    47    25    45    1
    48    26    46    1
    49    27    47    1
@<TRIPOS>MOLECULE
50333173
 32 33 0 0 0
SMALL
GASTEIGER

@<TRIPOS>ATOM
      1 O           1.5711   -1.2605   -0.7813 O.2     1  UNL1       -0.2705
      2 C           1.1181   -0.2648   -0.1633 C.2     1  UNL1        0.2411
      3 C          -0.3286   -0.0634    0.0145 C.2     1  UNL1        0.0010
      4 C          -1.2072   -0.9095   -0.4614 C.2     1  UNL1       -0.0495
      5 C          -2.6499   -0.7835   -0.3292 C.ar    1  UNL1       -0.0185
      6 C          -3.4567   -1.7548   -0.8834 C.ar    1  UNL1       -0.0542
      7 C          -4.8426   -1.6937   -0.7925 C.ar    1  UNL1       -0.0548
      8 C          -5.4376   -0.6373   -0.1325 C.ar    1  UNL1        0.0156
      9 C          -4.6517    0.3388    0.4254 C.ar    1  UNL1        0.2737
     10 N          -5.2703    1.4141    1.0978 N.pl3   1  UNL1        0.0796
     11 O          -6.5034    1.4622    1.1749 O.2     1  UNL1        0.0414
     12 O          -4.5341    2.4084    1.6686 O.co2   1  UNL1       -0.5760
     13 C          -3.2734    0.2486    0.3173 C.ar    1  UNL1        0.0227
     14 N           2.0435    0.6684    0.3633 N.am    1  UNL1       -0.2807
     15 C           3.4479    0.5383    0.2301 C.ar    1  UNL1        0.0521
     16 C           4.2008   -0.1454    1.1869 C.ar    1  UNL1       -0.0390
     17 C           5.5666   -0.2548    1.0286 C.ar    1  UNL1       -0.0599
     18 C           6.1733    0.3160   -0.0792 C.ar    1  UNL1       -0.0603
     19 C           5.4099    0.9929   -1.0220 C.ar    1  UNL1       -0.0416
     20 C           4.0425    1.1141   -0.8831 C.ar    1  UNL1        0.0621
     21 CL          3.1099    1.9718   -2.0864 Cl      1  UNL1       -0.0816
     22 H          -0.6698    0.7980    0.5471 H       1  UNL1        0.0670
     23 H          -0.7800   -1.7707   -0.9973 H       1  UNL1        0.0625
     24 H          -3.0265   -2.5979   -1.4084 H       1  UNL1        0.0623
     25 H          -5.4991   -2.4400   -1.2169 H       1  UNL1        0.0620
     26 H          -6.5272   -0.5807   -0.0559 H       1  UNL1        0.0685
     27 H          -2.6725    1.0189    0.7583 H       1  UNL1        0.0691
     28 H           1.6754    1.4929    0.8747 H       1  UNL1        0.1552
     29 H           3.6938   -0.5701    2.0250 H       1  UNL1        0.0637
     30 H           6.1884   -0.7739    1.7425 H       1  UNL1        0.0618
     31 H           7.2380    0.2665   -0.2625 H       1  UNL1        0.0618
     32 H           5.8513    1.4512   -1.9000 H       1  UNL1        0.0633
@<TRIPOS>UNITY_ATOM_ATTR
10 1
charge 1
12 1
charge -1
@<TRIPOS>BOND
     1     1     2    2
     2     2     3    1
     3     3     4    2
     4     4     5    1
     5     5     6   ar
     6     6     7   ar
     7     7     8   ar
     8     8     9   ar
     9     9    10    1
    10    10    11    2
    11    10    12    1
    12     9    13   ar
    13     2    14   am
    14    14    15    1
    15    15    16   ar
    16    16    17   ar
    17    17    18   ar
    18    18    19   ar
    19    19    20   ar
    20    20    21    1
    21    13     5   ar
    22    20    15   ar
    23     3    22    1
    24     4    23    1
    25     6    24    1
    26     7    25    1
    27     8    26    1
    28    13    27    1
    29    14    28    1
    30    16    29    1
    31    17    30    1
    32    18    31    1
    33    19    32    1
@<TRIPOS>MOLECULE
51467438
 50 54 0 0 0
SMALL
GASTEIGER

@<TRIPOS>ATOM
      1 O           2.2549    2.3459    0.8901 O.2     1  UNL1       -0.2731
      2 C           1.5113    1.7999    0.0437 C.2     1  UNL1        0.2442
      3 C           0.0815    1.8906   -0.2595 C.3     1  UNL1        0.1091
      4 C          -0.8330    2.6077    0.6537 C.3     1  UNL1        0.0001
      5 C          -2.2012    2.2173    0.1653 C.ar    1  UNL1       -0.0362
      6 C          -3.1376    3.1271   -0.2114 C.ar    1  UNL1       -0.0130
      7 C          -4.3585    2.7002   -0.7744 C.ar    1  UNL1        0.1585
      8 O          -5.3298    3.6102   -1.1654 O.3     1  UNL1       -0.5033
      9 C          -4.5567    1.3438   -0.9243 C.ar    1  UNL1        0.1586
     10 O          -5.7415    0.8843   -1.4749 O.3     1  UNL1       -0.5033
     11 C          -3.5909    0.4068   -0.5348 C.ar    1  UNL1       -0.0110
     12 C          -2.4251    0.8370    0.0083 C.ar    1  UNL1       -0.0156
     13 C          -1.3043    0.0124    0.5063 C.3     1  UNL1        0.0791
     14 C          -1.5196   -1.3850    0.7852 C.ar    1  UNL1       -0.0224
     15 C          -0.4541   -2.2388    0.7372 C.ar    1  UNL1       -0.0538
     16 C          -0.6166   -3.5727    1.0340 C.ar    1  UNL1       -0.0261
     17 C          -1.8629   -4.0477    1.3831 C.ar    1  UNL1        0.1234
     18 F          -1.9603   -5.3809    1.6652 F       1  UNL1       -0.2055
     19 C          -2.9578   -3.2187    1.4447 C.ar    1  UNL1       -0.0261
     20 C          -2.7552   -1.8787    1.1389 C.ar    1  UNL1       -0.0538
     21 N          -0.1956    0.4148   -0.2921 N.am    1  UNL1       -0.2622
     22 C           0.8326   -0.0451   -1.1472 C.2     1  UNL1        0.3128
     23 O           0.7102   -1.0306   -1.9066 O.2     1  UNL1       -0.2519
     24 N           1.9670    0.8328   -0.9496 N.am    1  UNL1       -0.2199
     25 C           3.2387    0.7228   -1.5980 C.3     1  UNL1        0.0489
     26 C           4.1448   -0.1648   -0.8083 C.ar    1  UNL1       -0.0294
     27 C           4.9411    0.4021    0.1573 C.ar    1  UNL1       -0.0543
     28 C           5.7994   -0.3625    0.9207 C.ar    1  UNL1       -0.0261
     29 C           5.8372   -1.7209    0.6874 C.ar    1  UNL1        0.1234
     30 F           6.6792   -2.4699    1.4367 F       1  UNL1       -0.2055
     31 C           5.0588   -2.3159   -0.2646 C.ar    1  UNL1       -0.0261
     32 C           4.2026   -1.5155   -1.0186 C.ar    1  UNL1       -0.0543
     33 H          -0.0388    2.2726   -1.3051 H       1  UNL1        0.0601
     34 H          -0.6559    2.3122    1.6953 H       1  UNL1        0.0336
     35 H          -0.6864    3.7060    0.5008 H       1  UNL1        0.0336
     36 H          -3.0165    4.1994   -0.1103 H       1  UNL1        0.0658
     37 H          -5.5951    4.4166   -0.6400 H       1  UNL1        0.2923
     38 H          -6.6333    1.2864   -1.1913 H       1  UNL1        0.2923
     39 H          -3.8413   -0.6162   -0.7440 H       1  UNL1        0.0659
     40 H          -1.1511    0.4485    1.5872 H       1  UNL1        0.0602
     41 H           0.5693   -1.9033    0.4960 H       1  UNL1        0.0622
     42 H           0.2559   -4.2459    0.9883 H       1  UNL1        0.0646
     43 H          -3.9067   -3.6448    1.7238 H       1  UNL1        0.0646
     44 H          -3.6504   -1.2717    1.2589 H       1  UNL1        0.0622
     45 H           3.7665    1.6926   -1.7431 H       1  UNL1        0.0519
     46 H           3.1382    0.2944   -2.6315 H       1  UNL1        0.0519
     47 H           4.8879    1.4695    0.3153 H       1  UNL1        0.0622
     48 H           6.4063    0.1172    1.6661 H       1  UNL1        0.0646
     49 H           5.1013   -3.3699   -0.4315 H       1  UNL1        0.0646
     50 H           3.5913   -1.9714   -1.7640 H       1  UNL1        0.0622
@<TRIPOS>BOND
     1     1     2    2
     2     2     3    1
     3     3     4    1
     4     4     5    1
     5     5     6   ar
     6     6     7   ar
     7     7     8    1
     8     7     9   ar
     9     9    10    1
    10     9    11   ar
    11    11    12   ar
    12    12    13    1
    13    13    14    1
    14    14    15   ar
    15    15    16   ar
    16    16    17   ar
    17    17    18    1
    18    17    19   ar
    19    19    20   ar
    20    13    21    1
    21    21    22   am
    22    22    23    2
    23    22    24   am
    24    24    25    1
    25    25    26    1
    26    26    27   ar
    27    27    28   ar
    28    28    29   ar
    29    29    30    1
    30    29    31   ar
    31    31    32   ar
    32    24     2   am
    33    32    26   ar
    34    21     3    1
    35    12     5   ar
    36    20    14   ar
    37     3    33    1
    38     4    34    1
    39     4    35    1
    40     6    36    1
    41     8    37    1
    42    10    38    1
    43    11    39    1
    44    13    40    1
    45    15    41    1
    46    16    42    1
    47    19    43    1
    48    20    44    1
    49    25    45    1
    50    25    46    1
    51    27    47    1
    52    28    48    1
    53    31    49    1
    54    32    50    1
@<TRIPOS>MOLECULE
51345613
 42 46 0 0 0
SMALL
GASTEIGER

@<TRIPOS>ATOM
      1 O          -0.5771    3.2808   -2.3579 O.2     2  UNK2       -0.2738
      2 C          -0.5247    3.1814   -1.1123 C.2     2  UNK2        0.2343
      3 N          -1.2112    4.1470   -0.3305 N.am    1  GLY1       -0.3052
      4 CA         -1.6337    3.8115    1.0336 C.3     1  GLY1        0.0884
      5 C          -1.7596    2.3100    1.0495 C.2     1  GLY1        0.2341
      6 O          -2.8240    1.8141    1.5100 O.2     1  GLY1       -0.2738
      7 N          -0.6922    1.5116    0.5531 N.am    2  UNK2       -0.2758
      8 C          -0.5933    0.1675    1.0316 C.3     2  UNK2        0.0924
      9 C          -1.6928   -0.7033    0.6160 C.ar    2  UNK2       -0.0211
     10 C          -2.2740   -1.5493    1.5400 C.ar    2  UNK2       -0.0551
     11 C          -3.3090   -2.4002    1.2433 C.ar    2  UNK2       -0.0431
     12 C          -3.8198   -2.4364   -0.0395 C.ar    2  UNK2        0.0410
     13 CL         -5.1426   -3.5010   -0.4866 Cl      2  UNK2       -0.0835
     14 C          -3.2479   -1.5961   -0.9718 C.ar    2  UNK2       -0.0431
     15 C          -2.2086   -0.7454   -0.6628 C.ar    2  UNK2       -0.0551
     16 C           0.7035   -0.4488    0.5872 C.ar    2  UNK2        0.0456
     17 N           1.3879   -1.4892    1.1204 N.ar    2  UNK2       -0.3560
     18 C           2.5104   -1.7229    0.4141 C.ar    2  UNK2        0.0470
     19 C           3.5088   -2.6446    0.5521 C.ar    2  UNK2       -0.0378
     20 C           4.5737   -2.6614   -0.3382 C.ar    2  UNK2       -0.0598
     21 C           4.6222   -1.7424   -1.3663 C.ar    2  UNK2       -0.0611
     22 C           3.6010   -0.8253   -1.4799 C.ar    2  UNK2       -0.0523
     23 C           2.5233   -0.7858   -0.6031 C.ar    2  UNK2        0.0032
     24 C           1.4029    0.0139   -0.5060 C.ar    2  UNK2       -0.0147
     25 C           0.9002    1.1584   -1.3066 C.3     2  UNK2        0.0019
     26 C           0.2133    2.1127   -0.3932 C.3     2  UNK2        0.1072
     27 H          -1.4422    5.1010   -0.6648 H       1  GLY1        0.1492
     28 HA1        -2.5744    4.2793    1.3123 H       1  GLY1        0.0558
     29 HA2        -0.7761    4.0532    1.6810 H       1  GLY1        0.0558
     30 H          -0.5586    0.1561    2.1619 H       2  UNK2        0.0616
     31 H          -1.9119   -1.5671    2.5780 H       2  UNK2        0.0621
     32 H          -3.7620   -3.0661    1.9826 H       2  UNK2        0.0632
     33 H          -3.6732   -1.6467   -1.9796 H       2  UNK2        0.0632
     34 H          -1.7773   -0.1019   -1.3936 H       2  UNK2        0.0621
     35 H           1.0560   -2.0193    1.9728 H       2  UNK2        0.1657
     36 H           3.4506   -3.3594    1.3691 H       2  UNK2        0.0638
     37 H           5.3660   -3.3865   -0.2355 H       2  UNK2        0.0618
     38 H           5.4681   -1.7754   -2.0523 H       2  UNK2        0.0618
     39 H           3.6320   -0.0990   -2.2861 H       2  UNK2        0.0624
     40 H           1.7628    1.7124   -1.7653 H       2  UNK2        0.0337
     41 H           0.2922    0.8225   -2.1688 H       2  UNK2        0.0337
     42 H           1.0111    2.6401    0.1923 H       2  UNK2        0.0600
@<TRIPOS>BOND
     1     1     2    2
     2     2     3   am
     3     3     4    1
     4     4     5    1
     5     5     6    2
     6     5     7   am
     7     7     8    1
     8     8     9    1
     9     9    10   ar
    10    10    11   ar
    11    11    12   ar
    12    12    13    1
    13    12    14   ar
    14    14    15   ar
    15     8    16    1
    16    16    17   ar
    17    17    18   ar
    18    18    19   ar
    19    19    20   ar
    20    20    21   ar
    21    21    22   ar
    22    22    23   ar
    23    23    24   ar
    24    24    25    1
    25    25    26    1
    26    26     2    1
    27    26     7    1
    28    15     9   ar
    29    24    16   ar
    30    23    18   ar
    31     3    27    1
    32     4    28    1
    33     4    29    1
    34     8    30    1
    35    10    31    1
    36    11    32    1
    37    14    33    1
    38    15    34    1
    39    17    35    1
    40    19    36    1
    41    20    37    1
    42    21    38    1
    43    22    39    1
    44    25    40    1
    45    25    41    1
    46    26    42    1
@<TRIPOS>MOLECULE
1060736
 27 28 0 0 0
SMALL
GASTEIGER

@<TRIPOS>ATOM
      1 C          -5.1667    0.5113   -0.4600 C.3     1  UNL1       -0.0582
      2 C          -3.6745    0.5965   -0.5383 C.3     1  UNL1        0.0083
      3 C          -3.0813   -0.4374    0.3439 C.2     1  UNL1        0.1746
      4 O          -3.8507   -1.1937    0.9935 O.2     1  UNL1       -0.2913
      5 C          -1.6357   -0.5461    0.4317 C.ar    1  UNL1        0.1177
      6 S          -0.4267    0.4965   -0.4644 S.2     1  UNL1       -0.0605
      7 C           1.0515   -0.3150    0.2243 C.ar    1  UNL1        0.1128
      8 C           2.3994    0.0552   -0.0971 C.ar    1  UNL1        0.0083
      9 C           2.6524    1.0840   -0.9779 C.ar    1  UNL1       -0.0520
     10 C           3.9724    1.3781   -1.2342 C.ar    1  UNL1       -0.0601
     11 C           5.0111    0.6818   -0.6422 C.ar    1  UNL1       -0.0477
     12 C           4.7383   -0.3407    0.2333 C.ar    1  UNL1        0.0185
     13 BR          6.1718   -1.2729    1.0256 Br      1  UNL1       -0.0503
     14 C           3.4195   -0.6419    0.4956 C.ar    1  UNL1       -0.0381
     15 N           0.4926   -1.1854    0.9708 N.ar    1  UNL1       -0.2047
     16 C          -0.7725   -1.3475    1.1140 C.ar    1  UNL1        0.2310
     17 O          -1.3132   -2.3509    1.9741 O.3     1  UNL1       -0.4915
     18 H          -5.4578   -0.5202   -0.1802 H       1  UNL1        0.0234
     19 H          -5.5098    1.1689    0.3872 H       1  UNL1        0.0234
     20 H          -5.6851    0.8862   -1.3600 H       1  UNL1        0.0234
     21 H          -3.2859    0.4520   -1.5824 H       1  UNL1        0.0343
     22 H          -3.3800    1.6303   -0.2433 H       1  UNL1        0.0343
     23 H           1.8801    1.6533   -1.4622 H       1  UNL1        0.0624
     24 H           4.2117    2.1686   -1.9111 H       1  UNL1        0.0618
     25 H           6.0363    0.9468   -0.8725 H       1  UNL1        0.0629
     26 H           3.2222   -1.4478    1.1856 H       1  UNL1        0.0635
     27 H          -2.0193   -2.1100    2.6459 H       1  UNL1        0.2938
@<TRIPOS>BOND
     1     1     2    1
     2     2     3    1
     3     3     4    2
     4     3     5    1
     5     5     6   ar
     6     6     7   ar
     7     7     8    1
     8     8     9   ar
     9     9    10   ar
    10    10    11   ar
    11    11    12   ar
    12    12    13    1
    13    12    14   ar
    14     7    15   ar
    15    15    16   ar
    16    16    17    1
    17    16     5   ar
    18    14     8   ar
    19     1    18    1
    20     1    19    1
    21     1    20    1
    22     2    21    1
    23     2    22    1
    24     9    23    1
    25    10    24    1
    26    11    25    1
    27    14    26    1
    28    17    27    1
@<TRIPOS>MOLECULE
136229289
 27 29 0 0 0
SMALL
GASTEIGER

@<TRIPOS>ATOM
      1 C           5.8765    0.6797   -1.3086 C.3     1  UNL1        0.0148
      2 C           4.7372    0.4807   -0.3451 C.ar    1  UNL1        0.2246
      3 N           3.4533    0.2294   -0.6373 N.ar    1  UNL1       -0.1910
      4 C           2.7686    0.1209    0.5097 C.ar    1  UNL1        0.2139
      5 C           1.3562   -0.1473    0.6101 C.ar    1  UNL1        0.1228
      6 S           0.0547    0.6769   -0.3734 S.2     1  UNL1       -0.0601
      7 C          -1.3167   -0.3231    0.4668 C.ar    1  UNL1        0.1129
      8 C          -2.6899   -0.0814    0.0597 C.ar    1  UNL1        0.0100
      9 C          -3.0380    0.8331   -0.9004 C.ar    1  UNL1       -0.0519
     10 C          -4.3754    1.0239   -1.2520 C.ar    1  UNL1       -0.0584
     11 C          -5.3852    0.2882   -0.6341 C.ar    1  UNL1       -0.0264
     12 C          -5.0235   -0.6265    0.3278 C.ar    1  UNL1        0.1240
     13 F          -5.9881   -1.3456    0.9345 F       1  UNL1       -0.2055
     14 C          -3.6873   -0.8022    0.6642 C.ar    1  UNL1       -0.0168
     15 N          -0.6944   -0.9505    1.1714 N.ar    1  UNL1       -0.2047
     16 C           0.6056   -0.9911    1.3677 C.ar    1  UNL1        0.2313
     17 O           1.1967   -1.8590    2.3101 O.3     1  UNL1       -0.4915
     18 N           3.6604    0.3109    1.4957 N.ar    1  UNL1       -0.0554
     19 O           4.8203    0.5223    0.9595 O.2     1  UNL1       -0.3380
     20 H           6.3279   -0.2767   -1.6053 H       1  UNL1        0.0325
     21 H           6.6332    1.2903   -0.7922 H       1  UNL1        0.0325
     22 H           5.4710    1.2167   -2.1915 H       1  UNL1        0.0325
     23 H          -2.2799    1.4171   -1.3961 H       1  UNL1        0.0624
     24 H          -4.6729    1.7401   -2.0069 H       1  UNL1        0.0619
     25 H          -6.4270    0.4453   -0.9166 H       1  UNL1        0.0646
     26 H          -3.4171   -1.5180    1.4154 H       1  UNL1        0.0653
     27 H           2.0338   -2.3541    2.0663 H       1  UNL1        0.2938
@<TRIPOS>BOND
     1     1     2    1
     2     2     3   ar
     3     3     4   ar
     4     4     5    1
     5     5     6   ar
     6     6     7   ar
     7     7     8    1
     8     8     9   ar
     9     9    10   ar
    10    10    11   ar
    11    11    12   ar
    12    12    13    1
    13    12    14   ar
    14     7    15   ar
    15    15    16   ar
    16    16    17    1
    17     4    18   ar
    18    18    19   ar
    19    19     2   ar
    20    16     5   ar
    21    14     8   ar
    22     1    20    1
    23     1    21    1
    24     1    22    1
    25     9    23    1
    26    10    24    1
    27    11    25    1
    28    14    26    1
    29    17    27    1
@<TRIPOS>MOLECULE
50333169
 36 37 0 0 0
SMALL
GASTEIGER

@<TRIPOS>ATOM
      1 C          -4.1080   -0.3209   -2.4475 C.3     1  UNL1        0.0789
      2 O          -3.1563   -0.3127   -1.3797 O.3     1  UNL1       -0.4933
      3 C          -3.6484   -0.2552   -0.0878 C.ar    1  UNL1        0.1412
      4 C          -4.9955   -0.2063    0.2130 C.ar    1  UNL1       -0.0181
      5 C          -5.4710   -0.1494    1.5033 C.ar    1  UNL1       -0.0582
      6 C          -4.5599   -0.1411    2.5373 C.ar    1  UNL1       -0.0598
      7 C          -3.2086   -0.1895    2.2578 C.ar    1  UNL1       -0.0369
      8 C          -2.7530   -0.2467    0.9420 C.ar    1  UNL1        0.0758
      9 N          -1.3541   -0.2957    0.6851 N.am    1  UNL1       -0.2790
     10 C          -0.5512    0.8494    0.5046 C.2     1  UNL1        0.2412
     11 O          -1.1759    1.9550    0.5889 O.2     1  UNL1       -0.2705
     12 C           0.8820    0.8430    0.2402 C.2     1  UNL1        0.0010
     13 C           1.6001   -0.2433    0.1382 C.2     1  UNL1       -0.0495
     14 C           3.0297   -0.2663   -0.1251 C.ar    1  UNL1       -0.0185
     15 C           3.6730   -1.4941   -0.2094 C.ar    1  UNL1       -0.0542
     16 C           5.0202   -1.6161   -0.4548 C.ar    1  UNL1       -0.0548
     17 C           5.7766   -0.4763   -0.6266 C.ar    1  UNL1        0.0156
     18 C           5.1657    0.7448   -0.5481 C.ar    1  UNL1        0.2737
     19 N           5.9077    1.9369   -0.7188 N.pl3   1  UNL1        0.0796
     20 O           5.3763    3.0626   -0.6523 O.2     1  UNL1        0.0414
     21 O           7.2599    1.8953   -0.9674 O.co2   1  UNL1       -0.5760
     22 C           3.8151    0.8432   -0.3015 C.ar    1  UNL1        0.0227
     23 H          -4.8310    0.5338   -2.3242 H       1  UNL1        0.0660
     24 H          -3.6162   -0.1595   -3.4278 H       1  UNL1        0.0660
     25 H          -4.7164   -1.2485   -2.4468 H       1  UNL1        0.0660
     26 H          -5.7005   -0.2135   -0.6133 H       1  UNL1        0.0655
     27 H          -6.5448   -0.1107    1.7304 H       1  UNL1        0.0619
     28 H          -4.9170   -0.0967    3.5562 H       1  UNL1        0.0618
     29 H          -2.4850   -0.1834    3.0670 H       1  UNL1        0.0637
     30 H          -0.9068   -1.2293    0.6288 H       1  UNL1        0.1552
     31 H           1.3607    1.8043    0.1247 H       1  UNL1        0.0670
     32 H           1.0760   -1.2070    0.2621 H       1  UNL1        0.0625
     33 H           3.1083   -2.4224   -0.0789 H       1  UNL1        0.0623
     34 H           5.4733   -2.6174   -0.5102 H       1  UNL1        0.0620
     35 H           6.8470   -0.5985   -0.8208 H       1  UNL1        0.0685
     36 H           3.3281    1.8321   -0.2394 H       1  UNL1        0.0691
@<TRIPOS>UNITY_ATOM_ATTR
19 1
charge 1
21 1
charge -1
@<TRIPOS>BOND
     1     1     2    1
     2     2     3    1
     3     3     4   ar
     4     4     5   ar
     5     5     6   ar
     6     6     7   ar
     7     7     8   ar
     8     8     9    1
     9     9    10   am
    10    10    11    2
    11    10    12    1
    12    12    13    2
    13    13    14    1
    14    14    15   ar
    15    15    16   ar
    16    16    17   ar
    17    17    18   ar
    18    18    19    1
    19    19    20    2
    20    19    21    1
    21    18    22   ar
    22     8     3   ar
    23    22    14   ar
    24     1    23    1
    25     1    24    1
    26     1    25    1
    27     4    26    1
    28     5    27    1
    29     6    28    1
    30     7    29    1
    31     9    30    1
    32    12    31    1
    33    13    32    1
    34    15    33    1
    35    16    34    1
    36    17    35    1
    37    22    36    1
@<TRIPOS>MOLECULE
50162248
 45 46 0 0 0
SMALL
GASTEIGER

@<TRIPOS>ATOM
      1 C          -1.6843    1.7416   -1.5963 C.3     1  UNL1       -0.0624
      2 C          -1.8020    0.2601   -1.6790 C.3     1  UNL1       -0.0422
      3 C          -2.9892   -0.1095   -2.5484 C.3     1  UNL1       -0.0624
      4 C          -1.9875   -0.4128   -0.3513 C.3     1  UNL1       -0.0201
      5 C          -3.2064    0.0123    0.3901 C.3     1  UNL1       -0.0481
      6 C          -2.9340    0.7965    1.6324 C.3     1  UNL1       -0.0501
      7 C          -2.0154    0.1267    2.6000 C.3     1  UNL1       -0.0422
      8 C          -2.7793   -0.5781    3.7254 C.3     1  UNL1       -0.0624
      9 C          -1.2068   -0.9051    1.8899 C.3     1  UNL1       -0.0315
     10 C          -0.7782   -0.2931    0.5481 C.3     1  UNL1        0.0295
     11 N           0.3083   -1.1144    0.0680 N.am    1  UNL1       -0.2777
     12 C           1.5720   -0.5243   -0.1509 C.2     1  UNL1        0.4058
     13 O           1.7104    0.7109    0.0824 O.2     1  UNL1       -0.2260
     14 O           2.6713   -1.2500   -0.6135 O.3     1  UNL1       -0.4115
     15 C           3.9066   -0.6574   -0.8240 C.ar    1  UNL1        0.1333
     16 C           4.2540   -0.1023   -2.0377 C.ar    1  UNL1       -0.0178
     17 C           5.4868    0.4893   -2.2483 C.ar    1  UNL1       -0.0399
     18 C           6.4210    0.5450   -1.2409 C.ar    1  UNL1        0.0412
     19 CL          7.9951    1.2884   -1.4743 Cl      1  UNL1       -0.0835
     20 C           6.0884   -0.0055   -0.0220 C.ar    1  UNL1       -0.0399
     21 C           4.8608   -0.5969    0.1946 C.ar    1  UNL1       -0.0178
     22 H          -1.9031    2.1483   -2.6270 H       1  UNL1        0.0232
     23 H          -0.6224    2.0174   -1.3743 H       1  UNL1        0.0232
     24 H          -2.4075    2.2322   -0.9304 H       1  UNL1        0.0232
     25 H          -0.8717   -0.1433   -2.1288 H       1  UNL1        0.0299
     26 H          -3.6407   -0.8639   -2.0754 H       1  UNL1        0.0232
     27 H          -3.6264    0.7692   -2.7798 H       1  UNL1        0.0232
     28 H          -2.6452   -0.5293   -3.5150 H       1  UNL1        0.0232
     29 H          -2.0979   -1.5138   -0.5668 H       1  UNL1        0.0321
     30 H          -3.8310    0.6283   -0.2757 H       1  UNL1        0.0269
     31 H          -3.8537   -0.8596    0.6892 H       1  UNL1        0.0269
     32 H          -2.5918    1.8433    1.4307 H       1  UNL1        0.0268
     33 H          -3.9226    0.9264    2.1572 H       1  UNL1        0.0268
     34 H          -1.3053    0.8607    3.0802 H       1  UNL1        0.0299
     35 H          -3.1013    0.1283    4.5036 H       1  UNL1        0.0232
     36 H          -2.0824   -1.3150    4.1993 H       1  UNL1        0.0232
     37 H          -3.6267   -1.1283    3.2975 H       1  UNL1        0.0232
     38 H          -1.8679   -1.7679    1.6515 H       1  UNL1        0.0286
     39 H          -0.3464   -1.2833    2.4558 H       1  UNL1        0.0286
     40 H          -0.4515    0.7439    0.6858 H       1  UNL1        0.0502
     41 H           0.1546   -2.1234   -0.1114 H       1  UNL1        0.1523
     42 H           3.5478   -0.1289   -2.8455 H       1  UNL1        0.0655
     43 H           5.7355    0.9200   -3.2164 H       1  UNL1        0.0633
     44 H           6.8327    0.0372    0.7855 H       1  UNL1        0.0633
     45 H           4.6333   -1.0197    1.1657 H       1  UNL1        0.0655
@<TRIPOS>BOND
     1     1     2    1
     2     2     3    1
     3     2     4    1
     4     4     5    1
     5     5     6    1
     6     6     7    1
     7     7     8    1
     8     7     9    1
     9     9    10    1
    10    10    11    1
    11    11    12   am
    12    12    13    2
    13    12    14    1
    14    14    15    1
    15    15    16   ar
    16    16    17   ar
    17    17    18   ar
    18    18    19    1
    19    18    20   ar
    20    20    21   ar
    21    10     4    1
    22    21    15   ar
    23     1    22    1
    24     1    23    1
    25     1    24    1
    26     2    25    1
    27     3    26    1
    28     3    27    1
    29     3    28    1
    30     4    29    1
    31     5    30    1
    32     5    31    1
    33     6    32    1
    34     6    33    1
    35     7    34    1
    36     8    35    1
    37     8    36    1
    38     8    37    1
    39     9    38    1
    40     9    39    1
    41    10    40    1
    42    11    41    1
    43    16    42    1
    44    17    43    1
    45    20    44    1
    46    21    45    1
@<TRIPOS>MOLECULE
50934291
 45 48 0 0 0
SMALL
GASTEIGER

@<TRIPOS>ATOM
      1 O           2.4723   -0.7722   -1.6940 O.2     1  UNL1       -0.2523
      2 C           1.5447   -0.6473   -0.8370 C.2     1  UNL1        0.3072
      3 N           1.7452    0.3380    0.1614 N.am    1  UNL1       -0.2693
      4 C           2.9272    1.1410    0.1941 C.ar    1  UNL1        0.0348
      5 C           4.0179    0.6770    0.9219 C.ar    1  UNL1       -0.0404
      6 C           5.2020    1.4006    1.0014 C.ar    1  UNL1       -0.0600
      7 C           5.2663    2.6091    0.3286 C.ar    1  UNL1       -0.0616
      8 C           4.1799    3.0602   -0.3901 C.ar    1  UNL1       -0.0600
      9 C           3.0034    2.3471   -0.4724 C.ar    1  UNL1       -0.0404
     10 N           0.3577   -1.4515   -0.8676 N.am    1  UNL1       -0.2740
     11 C           0.3152   -2.4108   -1.9550 C.3     1  UNL1        0.0215
     12 C          -1.0134   -3.0340   -2.1730 C.3     1  UNL1       -0.0052
     13 C          -1.6529   -3.2671   -0.8879 C.ar    1  UNL1       -0.0035
     14 S          -2.7869   -4.6110   -0.3345 S.2     1  UNL1       -0.1012
     15 C          -2.9609   -3.9762    1.3167 C.ar    1  UNL1       -0.0237
     16 C          -2.1975   -2.8545    1.3479 C.ar    1  UNL1       -0.0492
     17 C          -1.5356   -2.4959    0.2322 C.ar    1  UNL1       -0.0123
     18 C          -0.6291   -1.2474    0.1287 C.3     1  UNL1        0.0787
     19 C          -1.4592   -0.0317   -0.0307 C.ar    1  UNL1       -0.0220
     20 C          -1.9430    0.3717   -1.2656 C.ar    1  UNL1       -0.0565
     21 C          -2.7225    1.5097   -1.3610 C.ar    1  UNL1       -0.0609
     22 C          -3.0520    2.2813   -0.2739 C.ar    1  UNL1       -0.0501
     23 C          -2.5826    1.8988    0.9587 C.ar    1  UNL1        0.0551
     24 C          -2.8907    2.6788    2.2021 C.3     1  UNL1        0.4174
     25 F          -3.6925    1.9231    3.0527 F       1  UNL1       -0.1659
     26 F          -1.7118    2.9226    2.8803 F       1  UNL1       -0.1659
     27 F          -3.4941    3.8707    1.8994 F       1  UNL1       -0.1659
     28 C          -1.8070    0.7675    1.0576 C.ar    1  UNL1       -0.0448
     29 H           1.0479    0.5151    0.9038 H       1  UNL1        0.1564
     30 H           3.9257   -0.2807    1.4378 H       1  UNL1        0.0636
     31 H           6.0412    1.0256    1.5718 H       1  UNL1        0.0618
     32 H           6.1621    3.2156    0.3545 H       1  UNL1        0.0618
     33 H           4.2699    4.0088   -0.9015 H       1  UNL1        0.0618
     34 H           2.1412    2.7044   -1.0423 H       1  UNL1        0.0636
     35 H           0.6472   -1.8557   -2.8812 H       1  UNL1        0.0469
     36 H           1.0828   -3.2016   -1.7722 H       1  UNL1        0.0469
     37 H          -0.8246   -4.0208   -2.6952 H       1  UNL1        0.0334
     38 H          -1.6888   -2.4981   -2.8670 H       1  UNL1        0.0334
     39 H          -3.5676   -4.4349    2.0978 H       1  UNL1        0.0693
     40 H          -2.1653   -2.2822    2.3262 H       1  UNL1        0.0626
     41 H          -0.0805   -1.1316    1.1087 H       1  UNL1        0.0602
     42 H          -1.6914   -0.2246   -2.1364 H       1  UNL1        0.0621
     43 H          -3.1009    1.8254   -2.3256 H       1  UNL1        0.0618
     44 H          -3.6633    3.1754   -0.3418 H       1  UNL1        0.0623
     45 H          -1.4357    0.4621    2.0217 H       1  UNL1        0.0626
@<TRIPOS>BOND
     1     1     2    2
     2     2     3   am
     3     3     4    1
     4     4     5   ar
     5     5     6   ar
     6     6     7   ar
     7     7     8   ar
     8     8     9   ar
     9     2    10   am
    10    10    11    1
    11    11    12    1
    12    12    13    1
    13    13    14   ar
    14    14    15   ar
    15    15    16   ar
    16    16    17   ar
    17    17    18    1
    18    18    19    1
    19    19    20   ar
    20    20    21   ar
    21    21    22   ar
    22    22    23   ar
    23    23    24    1
    24    24    25    1
    25    24    26    1
    26    24    27    1
    27    23    28   ar
    28     9     4   ar
    29    18    10    1
    30    28    19   ar
    31    17    13   ar
    32     3    29    1
    33     5    30    1
    34     6    31    1
    35     7    32    1
    36     8    33    1
    37     9    34    1
    38    11    35    1
    39    11    36    1
    40    12    37    1
    41    12    38    1
    42    15    39    1
    43    16    40    1
    44    18    41    1
    45    20    42    1
    46    21    43    1
    47    22    44    1
    48    28    45    1
@<TRIPOS>MOLECULE
50934282
 42 45 0 0 0
SMALL
GASTEIGER

@<TRIPOS>ATOM
      1 O           0.5780    1.1764   -0.1498 O.2     1  UNL1       -0.2523
      2 C           0.8582    0.0113    0.1939 C.2     1  UNL1        0.3072
      3 N           2.0739   -0.5679   -0.2094 N.am    1  UNL1       -0.2693
      4 C           3.0471    0.0674   -0.9931 C.ar    1  UNL1        0.0348
      5 C           2.9708    1.3407   -1.4871 C.ar    1  UNL1       -0.0404
      6 C           3.9881    1.9204   -2.2707 C.ar    1  UNL1       -0.0600
      7 C           5.1103    1.1860   -2.5583 C.ar    1  UNL1       -0.0616
      8 C           5.2155   -0.0972   -2.0756 C.ar    1  UNL1       -0.0600
      9 C           4.2137   -0.6509   -1.3112 C.ar    1  UNL1       -0.0404
     10 N          -0.0595   -0.7574    1.0072 N.am    1  UNL1       -0.2740
     11 C           0.3574   -2.0782    1.4075 C.3     1  UNL1        0.0215
     12 C          -0.4367   -2.5413    2.6230 C.3     1  UNL1       -0.0052
     13 C          -1.8684   -2.3594    2.1770 C.ar    1  UNL1       -0.0035
     14 S          -3.2550   -3.4290    2.2960 S.2     1  UNL1       -0.1012
     15 C          -4.4139   -2.3230    1.5081 C.ar    1  UNL1       -0.0237
     16 C          -3.6349   -1.2220    1.2194 C.ar    1  UNL1       -0.0492
     17 C          -2.3449   -1.2482    1.5618 C.ar    1  UNL1       -0.0123
     18 C          -1.2962   -0.1544    1.3483 C.3     1  UNL1        0.0787
     19 C          -1.7951    0.8249    0.3704 C.ar    1  UNL1       -0.0224
     20 C          -1.9115    0.6176   -0.9893 C.ar    1  UNL1       -0.0538
     21 C          -2.3955    1.6114   -1.8150 C.ar    1  UNL1       -0.0261
     22 C          -2.7800    2.8391   -1.3303 C.ar    1  UNL1        0.1234
     23 F          -3.2607    3.8211   -2.1634 F       1  UNL1       -0.2055
     24 C          -2.6676    3.0570    0.0287 C.ar    1  UNL1       -0.0261
     25 C          -2.1849    2.0598    0.8369 C.ar    1  UNL1       -0.0538
     26 H           2.3081   -1.5680    0.0773 H       1  UNL1        0.1564
     27 H           2.1182    1.9673   -1.2973 H       1  UNL1        0.0636
     28 H           3.9090    2.9240   -2.6499 H       1  UNL1        0.0618
     29 H           5.9147    1.5999   -3.1593 H       1  UNL1        0.0618
     30 H           6.1253   -0.6433   -2.3295 H       1  UNL1        0.0618
     31 H           4.3354   -1.6719   -0.9472 H       1  UNL1        0.0636
     32 H           1.4181   -2.1425    1.7252 H       1  UNL1        0.0469
     33 H           0.1943   -2.8231    0.6172 H       1  UNL1        0.0469
     34 H          -0.2668   -3.6129    2.7580 H       1  UNL1        0.0334
     35 H          -0.2072   -1.9896    3.5314 H       1  UNL1        0.0334
     36 H          -5.4831   -2.5118    1.3175 H       1  UNL1        0.0693
     37 H          -4.1262   -0.3493    0.7081 H       1  UNL1        0.0626
     38 H          -1.1811    0.3392    2.3306 H       1  UNL1        0.0602
     39 H          -1.6074   -0.3495   -1.3625 H       1  UNL1        0.0622
     40 H          -2.4815    1.4320   -2.8885 H       1  UNL1        0.0646
     41 H          -2.9608    4.0108    0.4444 H       1  UNL1        0.0646
     42 H          -2.1170    2.2844    1.8995 H       1  UNL1        0.0622
@<TRIPOS>BOND
     1     1     2    2
     2     2     3   am
     3     3     4    1
     4     4     5   ar
     5     5     6   ar
     6     6     7   ar
     7     7     8   ar
     8     8     9   ar
     9     2    10   am
    10    10    11    1
    11    11    12    1
    12    12    13    1
    13    13    14   ar
    14    14    15   ar
    15    15    16   ar
    16    16    17   ar
    17    17    18    1
    18    18    19    1
    19    19    20   ar
    20    20    21   ar
    21    21    22   ar
    22    22    23    1
    23    22    24   ar
    24    24    25   ar
    25     9     4   ar
    26    18    10    1
    27    25    19   ar
    28    17    13   ar
    29     3    26    1
    30     5    27    1
    31     6    28    1
    32     7    29    1
    33     8    30    1
    34     9    31    1
    35    11    32    1
    36    11    33    1
    37    12    34    1
    38    12    35    1
    39    15    36    1
    40    16    37    1
    41    18    38    1
    42    20    39    1
    43    21    40    1
    44    24    41    1
    45    25    42    1
@<TRIPOS>MOLECULE
72545746
 55 57 0 0 0
SMALL
GASTEIGER

@<TRIPOS>ATOM
      1 C          -1.2487   -1.8168   -0.7783 C.3     1  UNL1       -0.0493
      2 C          -1.7570   -0.4962   -1.2458 C.3     1  UNL1        0.0124
      3 N          -1.5358    0.5993   -0.3241 N.am    1  UNL1       -0.2946
      4 C          -0.3133    1.3153   -0.4849 C.2     1  UNL1        0.2504
      5 O          -0.1195    2.2679    0.3149 O.2     1  UNL1       -0.2698
      6 C           0.6509    0.9602   -1.5220 C.ar    1  UNL1        0.0785
      7 C           0.5479    1.4455   -2.8047 C.ar    1  UNL1       -0.0461
      8 C           1.4333    1.1109   -3.8123 C.ar    1  UNL1       -0.0608
      9 C           2.4813    0.2526   -3.5562 C.ar    1  UNL1       -0.0583
     10 C           2.6087   -0.2483   -2.2805 C.ar    1  UNL1       -0.0192
     11 C           1.7229    0.0840   -1.2612 C.ar    1  UNL1        0.1331
     12 O           1.8071   -0.3776    0.0015 O.3     1  UNL1       -0.4866
     13 C           2.6366   -1.2036    0.6985 C.3     1  UNL1        0.1159
     14 C           4.0507   -0.8189    0.8271 C.ar    1  UNL1        0.0070
     15 C           5.0454   -1.4549    0.1312 C.ar    1  UNL1       -0.0541
     16 C           6.3460   -1.0521    0.3111 C.ar    1  UNL1       -0.0613
     17 C           6.6598   -0.0259    1.1751 C.ar    1  UNL1       -0.0605
     18 C           5.6633    0.6152    1.8763 C.ar    1  UNL1       -0.0440
     19 C           4.3532    0.2274    1.7110 C.ar    1  UNL1        0.0582
     20 C           3.3106    0.9008    2.4605 C.1     1  UNL1        0.0995
     21 N           2.4843    1.4410    3.0343 N.1     1  UNL1       -0.1909
     22 C          -2.5200    0.9558    0.6849 C.3     1  UNL1        0.0277
     23 C          -3.7529    1.4832    0.0213 C.3     1  UNL1       -0.0342
     24 C          -4.9056    0.5834   -0.1119 C.3     1  UNL1       -0.0500
     25 C          -4.9119   -0.6807    0.6595 C.3     1  UNL1       -0.0376
     26 C          -4.1452   -0.5036    1.9395 C.3     1  UNL1        0.0065
     27 N          -4.8401    0.4137    2.8197 N.3     1  UNL1       -0.3272
     28 C          -2.7200   -0.0825    1.7107 C.3     1  UNL1       -0.0190
     29 H          -0.7914   -2.3512   -1.6509 H       1  UNL1        0.0245
     30 H          -2.1117   -2.4833   -0.4910 H       1  UNL1        0.0245
     31 H          -0.4822   -1.7963    0.0027 H       1  UNL1        0.0245
     32 H          -2.8324   -0.5953   -1.5155 H       1  UNL1        0.0462
     33 H          -1.2653   -0.2731   -2.2427 H       1  UNL1        0.0462
     34 H          -0.2859    2.1312   -3.0177 H       1  UNL1        0.0626
     35 H           1.3452    1.4973   -4.8175 H       1  UNL1        0.0618
     36 H           3.1821   -0.0190   -4.3339 H       1  UNL1        0.0619
     37 H           3.4318   -0.9355   -2.0781 H       1  UNL1        0.0654
     38 H           2.6173   -2.2204    0.2261 H       1  UNL1        0.0748
     39 H           2.2872   -1.3901    1.7632 H       1  UNL1        0.0748
     40 H           4.7602   -2.2699   -0.5499 H       1  UNL1        0.0622
     41 H           7.1056   -1.5894   -0.2665 H       1  UNL1        0.0618
     42 H           7.6939    0.2769    1.3025 H       1  UNL1        0.0618
     43 H           5.9218    1.4246    2.5570 H       1  UNL1        0.0630
     44 H          -2.0701    1.8494    1.2241 H       1  UNL1        0.0501
     45 H          -3.4519    1.8318   -1.0090 H       1  UNL1        0.0283
     46 H          -4.1131    2.4406    0.5090 H       1  UNL1        0.0283
     47 H          -5.8746    1.1364    0.0845 H       1  UNL1        0.0266
     48 H          -5.0463    0.2710   -1.1947 H       1  UNL1        0.0266
     49 H          -4.5647   -1.5718    0.0871 H       1  UNL1        0.0280
     50 H          -5.9566   -0.9259    0.9524 H       1  UNL1        0.0280
     51 H          -4.1632   -1.4875    2.4567 H       1  UNL1        0.0459
     52 H          -5.6802    0.8380    2.3842 H       1  UNL1        0.1185
     53 H          -4.2009    1.1184    3.2483 H       1  UNL1        0.1185
     54 H          -2.1624   -0.9989    1.4413 H       1  UNL1        0.0298
     55 H          -2.3244    0.1969    2.7340 H       1  UNL1        0.0298
@<TRIPOS>BOND
     1     1     2    1
     2     2     3    1
     3     3     4   am
     4     4     5    2
     5     4     6    1
     6     6     7   ar
     7     7     8   ar
     8     8     9   ar
     9     9    10   ar
    10    10    11   ar
    11    11    12    1
    12    12    13    1
    13    13    14    1
    14    14    15   ar
    15    15    16   ar
    16    16    17   ar
    17    17    18   ar
    18    18    19   ar
    19    19    20    1
    20    20    21    3
    21     3    22    1
    22    22    23    1
    23    23    24    1
    24    24    25    1
    25    25    26    1
    26    26    27    1
    27    26    28    1
    28    11     6   ar
    29    19    14   ar
    30    28    22    1
    31     1    29    1
    32     1    30    1
    33     1    31    1
    34     2    32    1
    35     2    33    1
    36     7    34    1
    37     8    35    1
    38     9    36    1
    39    10    37    1
    40    13    38    1
    41    13    39    1
    42    15    40    1
    43    16    41    1
    44    17    42    1
    45    18    43    1
    46    22    44    1
    47    23    45    1
    48    23    46    1
    49    24    47    1
    50    24    48    1
    51    25    49    1
    52    25    50    1
    53    26    51    1
    54    27    52    1
    55    27    53    1
    56    28    54    1
    57    28    55    1
@<TRIPOS>MOLECULE
171357638
 28 30 0 0 0
SMALL
GASTEIGER

@<TRIPOS>ATOM
      1 C          -5.6874   -0.5864    0.5147 C.3     1  UNL1       -0.0438
      2 C          -5.1631    0.3869   -0.5117 C.3     1  UNL1        0.0600
      3 N          -3.7761    0.0533   -0.8499 N.ar    1  UNL1       -0.1631
      4 N          -3.3583   -0.7582   -1.8046 N.ar    1  UNL1       -0.0458
      5 N          -2.0198   -0.8112   -1.8083 N.ar    1  UNL1       -0.1071
      6 C          -1.5859   -0.0150   -0.8339 C.ar    1  UNL1        0.2163
      7 C          -0.2078    0.2462   -0.4590 C.ar    1  UNL1        0.1231
      8 S           1.1079   -0.9837   -0.3757 S.2     1  UNL1       -0.0586
      9 C           2.3720    0.2582    0.1542 C.ar    1  UNL1        0.1325
     10 C           3.7672   -0.2039    0.3989 C.ar    1  UNL1        0.1140
     11 C           4.1664   -1.4962    0.2535 C.ar    1  UNL1        0.0556
     12 N           5.4446   -1.8970    0.4819 N.ar    1  UNL1       -0.2596
     13 C           6.3419   -0.9468    0.8708 C.ar    1  UNL1        0.0457
     14 C           5.9583    0.3669    1.0239 C.ar    1  UNL1        0.0464
     15 N           4.6558    0.7164    0.7802 N.ar    1  UNL1       -0.2499
     16 N           1.7189    1.2507    0.1838 N.ar    1  UNL1       -0.2031
     17 C           0.4428    1.3600   -0.0982 C.ar    1  UNL1        0.2314
     18 O          -0.2267    2.6067   -0.0253 O.3     1  UNL1       -0.4915
     19 N          -2.6738    0.5077   -0.2556 N.ar    1  UNL1       -0.1297
     20 H          -5.0279   -1.4718    0.6316 H       1  UNL1        0.0248
     21 H          -6.7418   -0.8859    0.3088 H       1  UNL1        0.0248
     22 H          -5.7145   -0.0922    1.5215 H       1  UNL1        0.0248
     23 H          -5.1254    1.4200   -0.0742 H       1  UNL1        0.0524
     24 H          -5.7972    0.4118   -1.4223 H       1  UNL1        0.0524
     25 H           3.4618   -2.2487   -0.0531 H       1  UNL1        0.0852
     26 H           7.3476   -1.2944    1.0445 H       1  UNL1        0.0845
     27 H           6.7106    1.0705    1.3327 H       1  UNL1        0.0845
     28 H          -0.3899    3.0358   -0.9294 H       1  UNL1        0.2938
@<TRIPOS>BOND
     1     1     2    1
     2     2     3    1
     3     3     4   ar
     4     4     5   ar
     5     5     6   ar
     6     6     7    1
     7     7     8   ar
     8     8     9   ar
     9     9    10    1
    10    10    11   ar
    11    11    12   ar
    12    12    13   ar
    13    13    14   ar
    14    14    15   ar
    15     9    16   ar
    16    16    17   ar
    17    17    18    1
    18     6    19   ar
    19    19     3   ar
    20    17     7   ar
    21    15    10   ar
    22     1    20    1
    23     1    21    1
    24     1    22    1
    25     2    23    1
    26     2    24    1
    27    11    25    1
    28    13    26    1
    29    14    27    1
    30    18    28    1
@<TRIPOS>MOLECULE
51135395
 64 68 0 0 0
SMALL
GASTEIGER

@<TRIPOS>ATOM
      1 C           8.0640    1.7651    1.1301 C.ar    1  UNL1       -0.0617
      2 C           7.1503    2.1424    2.0982 C.ar    1  UNL1       -0.0614
      3 C           5.8474    2.4133    1.7549 C.ar    1  UNL1       -0.0554
      4 C           5.4155    2.3148    0.4263 C.ar    1  UNL1       -0.0104
      5 C           4.0098    2.6467    0.0877 C.3     1  UNL1        0.1146
      6 O           3.0664    1.7021    0.2686 O.3     1  UNL1       -0.4874
      7 C           2.7934    0.4729   -0.1991 C.ar    1  UNL1        0.1217
      8 C           3.4924   -0.2542   -1.1221 C.ar    1  UNL1       -0.0179
      9 C           3.1389   -1.5178   -1.5467 C.ar    1  UNL1       -0.0343
     10 C           2.0063   -2.1006   -1.0140 C.ar    1  UNL1        0.0470
     11 N           1.3886   -3.2765   -1.1925 N.ar    1  UNL1       -0.3604
     12 C           0.2990   -3.3389   -0.4082 C.ar    1  UNL1        0.0059
     13 C           0.1758   -2.1762    0.3197 C.ar    1  UNL1       -0.0210
     14 C          -0.8548   -1.8042    1.2957 C.3     1  UNL1       -0.0129
     15 C          -1.8610   -0.8249    0.7437 C.3     1  UNL1        0.0036
     16 N          -2.5875   -1.2550   -0.3598 N.3     1  UNL1       -0.2937
     17 C          -3.5331   -2.2936   -0.2099 C.3     1  UNL1        0.0244
     18 C          -4.5731   -1.8398    0.7734 C.ar    1  UNL1       -0.0334
     19 C          -4.4133   -2.1123    2.1141 C.ar    1  UNL1       -0.0573
     20 C          -5.3400   -1.7136    3.0706 C.ar    1  UNL1       -0.0615
     21 C          -6.4435   -1.0300    2.6672 C.ar    1  UNL1       -0.0617
     22 C          -6.6169   -0.7498    1.3272 C.ar    1  UNL1       -0.0615
     23 C          -5.6902   -1.1509    0.3875 C.ar    1  UNL1       -0.0573
     24 C          -2.2711   -0.8205   -1.6573 C.3     1  UNL1        0.0244
     25 C          -2.4150    0.6569   -1.7573 C.ar    1  UNL1       -0.0334
     26 C          -3.6390    1.2381   -2.0424 C.ar    1  UNL1       -0.0573
     27 C          -3.7239    2.6052   -2.1367 C.ar    1  UNL1       -0.0615
     28 C          -2.6454    3.4522   -1.9620 C.ar    1  UNL1       -0.0617
     29 C          -1.4286    2.8865   -1.6794 C.ar    1  UNL1       -0.0615
     30 C          -1.3425    1.5008   -1.5840 C.ar    1  UNL1       -0.0573
     31 C           1.2721   -1.3931   -0.0758 C.ar    1  UNL1        0.0063
     32 C           1.6412   -0.1423    0.3305 C.ar    1  UNL1       -0.0105
     33 C           6.3511    1.9381   -0.5058 C.ar    1  UNL1       -0.0554
     34 C           7.6772    1.6580   -0.1833 C.ar    1  UNL1       -0.0614
     35 H           9.0893    1.5515    1.3957 H       1  UNL1        0.0618
     36 H           7.4988    2.2167    3.1362 H       1  UNL1        0.0618
     37 H           5.1213    2.7074    2.4862 H       1  UNL1        0.0621
     38 H           3.7695    3.5422    0.7527 H       1  UNL1        0.0748
     39 H           3.9649    3.0869   -0.9474 H       1  UNL1        0.0748
     40 H           4.3745    0.2048   -1.5446 H       1  UNL1        0.0655
     41 H           3.7256   -2.0668   -2.2873 H       1  UNL1        0.0639
     42 H           1.7446   -4.0161   -1.8638 H       1  UNL1        0.1653
     43 H          -0.3860   -4.1925   -0.3599 H       1  UNL1        0.0810
     44 H          -1.2779   -2.7187    1.7064 H       1  UNL1        0.0326
     45 H          -0.3605   -1.2728    2.1615 H       1  UNL1        0.0326
     46 H          -2.5823   -0.5682    1.5746 H       1  UNL1        0.0430
     47 H          -1.3301    0.1233    0.5499 H       1  UNL1        0.0430
     48 H          -3.0452   -3.1787    0.2459 H       1  UNL1        0.0476
     49 H          -4.0730   -2.5716   -1.1177 H       1  UNL1        0.0476
     50 H          -3.5486   -2.6519    2.4519 H       1  UNL1        0.0621
     51 H          -5.1571   -1.9595    4.1168 H       1  UNL1        0.0618
     52 H          -7.1814   -0.7057    3.3803 H       1  UNL1        0.0618
     53 H          -7.4837   -0.2077    0.9706 H       1  UNL1        0.0618
     54 H          -5.8436   -0.9214   -0.6596 H       1  UNL1        0.0621
     55 H          -2.8392   -1.3077   -2.4707 H       1  UNL1        0.0476
     56 H          -1.1811   -1.0241   -1.8717 H       1  UNL1        0.0476
     57 H          -4.4705    0.5749   -2.1763 H       1  UNL1        0.0621
     58 H          -4.6782    3.0660   -2.3592 H       1  UNL1        0.0618
     59 H          -2.7861    4.5318   -2.0513 H       1  UNL1        0.0618
     60 H          -0.5530    3.4979   -1.5334 H       1  UNL1        0.0618
     61 H          -0.3570    1.0707   -1.3672 H       1  UNL1        0.0621
     62 H           1.0295    0.3651    1.0674 H       1  UNL1        0.0661
     63 H           6.0380    1.8627   -1.5593 H       1  UNL1        0.0621
     64 H           8.3681    1.3624   -0.9831 H       1  UNL1        0.0618
@<TRIPOS>BOND
     1     1     2   ar
     2     2     3   ar
     3     3     4   ar
     4     4     5    1
     5     5     6    1
     6     6     7    1
     7     7     8   ar
     8     8     9   ar
     9     9    10   ar
    10    10    11   ar
    11    11    12   ar
    12    12    13   ar
    13    13    14    1
    14    14    15    1
    15    15    16    1
    16    16    17    1
    17    17    18    1
    18    18    19   ar
    19    19    20   ar
    20    20    21   ar
    21    21    22   ar
    22    22    23   ar
    23    16    24    1
    24    24    25    1
    25    25    26   ar
    26    26    27   ar
    27    27    28   ar
    28    28    29   ar
    29    29    30   ar
    30    13    31   ar
    31    31    32   ar
    32     4    33   ar
    33    33    34   ar
    34    34     1   ar
    35    32     7   ar
    36    31    10   ar
    37    23    18   ar
    38    30    25   ar
    39     1    35    1
    40     2    36    1
    41     3    37    1
    42     5    38    1
    43     5    39    1
    44     8    40    1
    45     9    41    1
    46    11    42    1
    47    12    43    1
    48    14    44    1
    49    14    45    1
    50    15    46    1
    51    15    47    1
    52    17    48    1
    53    17    49    1
    54    19    50    1
    55    20    51    1
    56    21    52    1
    57    22    53    1
    58    23    54    1
    59    24    55    1
    60    24    56    1
    61    26    57    1
    62    27    58    1
    63    28    59    1
    64    29    60    1
    65    30    61    1
    66    32    62    1
    67    33    63    1
    68    34    64    1
@<TRIPOS>MOLECULE
50333167
 33 34 0 0 0
SMALL
GASTEIGER

@<TRIPOS>ATOM
      1 O           1.4227   -0.7786    0.8602 O.2     1  UNL1       -0.2705
      2 C           1.0472   -0.1048   -0.1191 C.2     1  UNL1        0.2412
      3 C          -0.3763    0.1392   -0.3826 C.2     1  UNL1        0.0010
      4 C          -1.3243   -0.3358    0.3937 C.2     1  UNL1       -0.0495
      5 C          -2.7537   -0.1440    0.2084 C.ar    1  UNL1       -0.0185
      6 C          -3.2125    0.5876   -0.8514 C.ar    1  UNL1       -0.0542
      7 C          -4.5827    0.7501   -0.9968 C.ar    1  UNL1       -0.0548
      8 C          -5.4647    0.1879   -0.0948 C.ar    1  UNL1        0.0156
      9 C          -5.0213   -0.5467    0.9706 C.ar    1  UNL1        0.2737
     10 N          -5.9054   -1.1386    1.9170 N.pl3   1  UNL1        0.0796
     11 O          -5.4584   -1.7999    2.8726 O.2     1  UNL1        0.0414
     12 O          -7.2663   -0.9993    1.8056 O.co2   1  UNL1       -0.5760
     13 C          -3.6617   -0.7112    1.1197 C.ar    1  UNL1        0.0227
     14 N           2.0152    0.4374   -0.9973 N.am    1  UNL1       -0.2790
     15 C           3.3839    0.2098   -0.7542 C.ar    1  UNL1        0.0756
     16 C           4.0689   -0.8765   -1.2706 C.ar    1  UNL1       -0.0369
     17 C           5.4171   -1.0580   -1.0032 C.ar    1  UNL1       -0.0598
     18 C           6.1249   -0.1708   -0.2182 C.ar    1  UNL1       -0.0582
     19 C           5.4441    0.9134    0.2980 C.ar    1  UNL1       -0.0183
     20 C           4.1032    1.1046    0.0391 C.ar    1  UNL1        0.1380
     21 O           3.4743    2.2074    0.5824 O.3     1  UNL1       -0.5049
     22 H          -0.6530    0.7180   -1.2272 H       1  UNL1        0.0670
     23 H          -0.9443   -0.9271    1.2495 H       1  UNL1        0.0625
     24 H          -2.5736    1.0450   -1.5796 H       1  UNL1        0.0623
     25 H          -4.9414    1.3217   -1.8248 H       1  UNL1        0.0620
     26 H          -6.5344    0.3362   -0.2404 H       1  UNL1        0.0685
     27 H          -3.2515   -1.2899    1.9547 H       1  UNL1        0.0691
     28 H           1.7224    1.0032   -1.8212 H       1  UNL1        0.1552
     29 H           3.5314   -1.5941   -1.8956 H       1  UNL1        0.0637
     30 H           5.9050   -1.9179   -1.4276 H       1  UNL1        0.0618
     31 H           7.1784   -0.3301   -0.0207 H       1  UNL1        0.0619
     32 H           5.9548    1.6359    0.9185 H       1  UNL1        0.0655
     33 H           3.1319    2.1261    1.5349 H       1  UNL1        0.2922
@<TRIPOS>UNITY_ATOM_ATTR
10 1
charge 1
12 1
charge -1
@<TRIPOS>BOND
     1     1     2    2
     2     2     3    1
     3     3     4    2
     4     4     5    1
     5     5     6   ar
     6     6     7   ar
     7     7     8   ar
     8     8     9   ar
     9     9    10    1
    10    10    11    2
    11    10    12    1
    12     9    13   ar
    13     2    14   am
    14    14    15    1
    15    15    16   ar
    16    16    17   ar
    17    17    18   ar
    18    18    19   ar
    19    19    20   ar
    20    20    21    1
    21    13     5   ar
    22    20    15   ar
    23     3    22    1
    24     4    23    1
    25     6    24    1
    26     7    25    1
    27     8    26    1
    28    13    27    1
    29    14    28    1
    30    16    29    1
    31    17    30    1
    32    18    31    1
    33    19    32    1
    34    21    33    1
@<TRIPOS>MOLECULE
51028014
 48 50 0 0 0
SMALL
GASTEIGER

@<TRIPOS>ATOM
      1 C          -5.4931    2.9817    1.4076 C.3     1  UNL1       -0.0397
      2 C          -4.8104    1.7287    0.9835 C.ar    1  UNL1       -0.0487
      3 C          -5.5145    0.5463    0.9699 C.ar    1  UNL1       -0.0585
      4 C          -4.9214   -0.6452    0.5822 C.ar    1  UNL1       -0.0563
      5 C          -3.5796   -0.6230    0.2011 C.ar    1  UNL1       -0.0236
      6 C          -2.8640   -1.8411   -0.2276 C.3     1  UNL1       -0.0198
      7 C          -3.0321   -1.9951   -1.7411 C.3     1  UNL1       -0.0586
      8 C          -3.3388   -3.1036    0.4129 C.3     1  UNL1       -0.0586
      9 C          -2.8737    0.5619    0.2146 C.ar    1  UNL1        0.0374
     10 N          -1.5059    0.5566   -0.1792 N.am    1  UNL1       -0.2812
     11 C          -0.4448    0.3443    0.7438 C.2     1  UNL1        0.2483
     12 O          -0.7996    0.1601    1.9414 O.2     1  UNL1       -0.2699
     13 C           0.9559    0.3300    0.3933 C.ar    1  UNL1        0.0371
     14 C           1.8934    0.1062    1.3963 C.ar    1  UNL1       -0.0491
     15 C           3.2444    0.0729    1.1752 C.ar    1  UNL1       -0.0533
     16 C           3.7280    0.2680   -0.0976 C.ar    1  UNL1       -0.0178
     17 C           5.1423    0.2526   -0.4355 C.ar    1  UNL1       -0.0179
     18 C           6.0359    0.6964    0.5162 C.ar    1  UNL1       -0.0540
     19 C           7.3829    0.6953    0.2311 C.ar    1  UNL1       -0.0612
     20 C           7.8216    0.2463   -1.0131 C.ar    1  UNL1       -0.0617
     21 C           6.9019   -0.1905   -1.9411 C.ar    1  UNL1       -0.0612
     22 C           5.5476   -0.2028   -1.6890 C.ar    1  UNL1       -0.0540
     23 C           2.8071    0.4911   -1.1019 C.ar    1  UNL1       -0.0533
     24 C           1.4397    0.5235   -0.8701 C.ar    1  UNL1       -0.0491
     25 C          -3.4655    1.7446    0.6004 C.ar    1  UNL1       -0.0373
     26 H          -6.5655    2.8660    1.0963 H       1  UNL1        0.0278
     27 H          -5.4213    3.1404    2.5039 H       1  UNL1        0.0278
     28 H          -5.0505    3.8775    0.9358 H       1  UNL1        0.0278
     29 H          -6.5567    0.5206    1.2649 H       1  UNL1        0.0620
     30 H          -5.4696   -1.5728    0.5699 H       1  UNL1        0.0621
     31 H          -1.7674   -1.7689   -0.0311 H       1  UNL1        0.0344
     32 H          -3.8419   -1.3329   -2.1150 H       1  UNL1        0.0235
     33 H          -3.3080   -3.0356   -2.0127 H       1  UNL1        0.0235
     34 H          -2.0647   -1.7847   -2.2668 H       1  UNL1        0.0235
     35 H          -2.9105   -3.1949    1.4323 H       1  UNL1        0.0235
     36 H          -4.4120   -3.2933    0.3611 H       1  UNL1        0.0235
     37 H          -2.8608   -3.9456   -0.1704 H       1  UNL1        0.0235
     38 H          -1.2291    0.7109   -1.1767 H       1  UNL1        0.1551
     39 H           1.5363   -0.0529    2.4218 H       1  UNL1        0.0625
     40 H           3.9195   -0.1025    1.9795 H       1  UNL1        0.0624
     41 H           5.6919    1.0464    1.4865 H       1  UNL1        0.0624
     42 H           8.0897    1.0429    0.9751 H       1  UNL1        0.0618
     43 H           8.8764    0.2510   -1.2231 H       1  UNL1        0.0618
     44 H           7.2288   -0.5416   -2.9098 H       1  UNL1        0.0618
     45 H           4.8316   -0.5437   -2.4141 H       1  UNL1        0.0624
     46 H           3.1811    0.6461   -2.1101 H       1  UNL1        0.0624
     47 H           0.7360    0.7012   -1.6756 H       1  UNL1        0.0625
     48 H          -2.8908    2.6614    0.6027 H       1  UNL1        0.0639
@<TRIPOS>BOND
     1     1     2    1
     2     2     3   ar
     3     3     4   ar
     4     4     5   ar
     5     5     6    1
     6     6     7    1
     7     6     8    1
     8     5     9   ar
     9     9    10    1
    10    10    11   am
    11    11    12    2
    12    11    13    1
    13    13    14   ar
    14    14    15   ar
    15    15    16   ar
    16    16    17    1
    17    17    18   ar
    18    18    19   ar
    19    19    20   ar
    20    20    21   ar
    21    21    22   ar
    22    16    23   ar
    23    23    24   ar
    24     9    25   ar
    25    25     2   ar
    26    24    13   ar
    27    22    17   ar
    28     1    26    1
    29     1    27    1
    30     1    28    1
    31     3    29    1
    32     4    30    1
    33     6    31    1
    34     7    32    1
    35     7    33    1
    36     7    34    1
    37     8    35    1
    38     8    36    1
    39     8    37    1
    40    10    38    1
    41    14    39    1
    42    15    40    1
    43    18    41    1
    44    19    42    1
    45    20    43    1
    46    21    44    1
    47    22    45    1
    48    23    46    1
    49    24    47    1
    50    25    48    1
@<TRIPOS>MOLECULE
CHEMBL4777173
 44 45 0 0 0
SMALL
GASTEIGER

@<TRIPOS>ATOM
      1 C          -0.7316    1.2819   -2.4686 C.2     1  UNL1       -0.0957
      2 C          -1.1114    1.0771   -1.2129 C.2     1  UNL1       -0.0336
      3 C          -2.0182    2.0401   -0.5739 C.3     1  UNL1       -0.0195
      4 C          -1.3295    2.9145    0.4503 C.3     1  UNL1       -0.0586
      5 C          -3.1392    1.2910    0.0864 C.3     1  UNL1       -0.0463
      6 C          -2.9100   -0.1757    0.2417 C.3     1  UNL1       -0.0458
      7 C          -1.4759   -0.5181    0.5941 C.3     1  UNL1        0.0025
      8 C          -1.4556   -1.9830    0.9558 C.3     1  UNL1       -0.0402
      9 C          -1.9073   -2.8800   -0.1447 C.3     1  UNL1       -0.0623
     10 C          -2.3389   -2.2854    2.1509 C.3     1  UNL1       -0.0623
     11 C          -0.5865   -0.1366   -0.5125 C.3     1  UNL1        0.1275
     12 O           0.7283    0.2119   -0.1738 O.3     1  UNL1       -0.4531
     13 C           1.8634   -0.3553   -0.7201 C.2     1  UNL1        0.3398
     14 O           1.5996   -1.2381   -1.5736 O.2     1  UNL1       -0.2449
     15 C           3.2140   -0.0170   -0.3912 C.ar    1  UNL1        0.0590
     16 C           4.2529   -0.6583   -1.0093 C.ar    1  UNL1       -0.0478
     17 C           5.5842   -0.3670   -0.7258 C.ar    1  UNL1       -0.0610
     18 C           5.8520    0.6051    0.2139 C.ar    1  UNL1       -0.0617
     19 C           4.8078    1.2517    0.8371 C.ar    1  UNL1       -0.0610
     20 C           3.4876    0.9468    0.5405 C.ar    1  UNL1       -0.0478
     21 H          -0.0561    0.5960   -2.9955 H       1  UNL1        0.0536
     22 H          -1.0597    2.1336   -3.0550 H       1  UNL1        0.0536
     23 H          -2.4298    2.7317   -1.3394 H       1  UNL1        0.0344
     24 H          -0.3664    3.3153    0.0794 H       1  UNL1        0.0235
     25 H          -1.2447    2.4578    1.4380 H       1  UNL1        0.0235
     26 H          -1.9928    3.8188    0.5860 H       1  UNL1        0.0235
     27 H          -3.3939    1.7639    1.0770 H       1  UNL1        0.0271
     28 H          -4.0727    1.4117   -0.5367 H       1  UNL1        0.0271
     29 H          -3.2399   -0.7142   -0.6752 H       1  UNL1        0.0269
     30 H          -3.6258   -0.5211    1.0439 H       1  UNL1        0.0269
     31 H          -1.2424    0.0599    1.5201 H       1  UNL1        0.0342
     32 H          -0.4361   -2.3028    1.3006 H       1  UNL1        0.0299
     33 H          -1.3033   -2.8514   -1.0557 H       1  UNL1        0.0232
     34 H          -3.0012   -2.7136   -0.3516 H       1  UNL1        0.0232
     35 H          -1.8538   -3.9257    0.2396 H       1  UNL1        0.0232
     36 H          -2.1344   -1.6426    3.0079 H       1  UNL1        0.0232
     37 H          -3.4089   -2.3631    1.8846 H       1  UNL1        0.0232
     38 H          -2.0534   -3.3316    2.4726 H       1  UNL1        0.0232
     39 H          -0.6248   -0.9437   -1.2925 H       1  UNL1        0.0785
     40 H           4.1092   -1.4372   -1.7620 H       1  UNL1        0.0626
     41 H           6.4052   -0.8917   -1.2315 H       1  UNL1        0.0618
     42 H           6.8852    0.8333    0.4359 H       1  UNL1        0.0618
     43 H           5.0520    2.0152    1.5752 H       1  UNL1        0.0618
     44 H           2.7029    1.4961    1.0700 H       1  UNL1        0.0626
@<TRIPOS>BOND
     1     1     2    2
     2     2     3    1
     3     3     4    1
     4     3     5    1
     5     5     6    1
     6     6     7    1
     7     7     8    1
     8     8     9    1
     9     8    10    1
    10     7    11    1
    11    11    12    1
    12    12    13    1
    13    13    14    2
    14    13    15    1
    15    15    16   ar
    16    16    17   ar
    17    17    18   ar
    18    18    19   ar
    19    19    20   ar
    20    11     2    1
    21    20    15   ar
    22     1    21    1
    23     1    22    1
    24     3    23    1
    25     4    24    1
    26     4    25    1
    27     4    26    1
    28     5    27    1
    29     5    28    1
    30     6    29    1
    31     6    30    1
    32     7    31    1
    33     8    32    1
    34     9    33    1
    35     9    34    1
    36     9    35    1
    37    10    36    1
    38    10    37    1
    39    10    38    1
    40    11    39    1
    41    16    40    1
    42    17    41    1
    43    18    42    1
    44    19    43    1
    45    20    44    1
@<TRIPOS>MOLECULE
51366415
 52 54 0 0 0
SMALL
GASTEIGER

@<TRIPOS>ATOM
      1 C           2.8719   -0.3131    2.4944 C.3     1  UNL1       -0.0367
      2 C           2.8770    0.4259    1.2319 C.ar    1  UNL1       -0.0102
      3 C           4.0668    1.1172    0.9507 C.ar    1  UNL1        0.1293
      4 F           5.0947    1.1186    1.8329 F       1  UNL1       -0.2051
      5 C           4.2524    1.8232   -0.2136 C.ar    1  UNL1        0.0091
      6 C           3.2185    1.8283   -1.1071 C.ar    1  UNL1        0.1265
      7 F           3.3843    2.5228   -2.2718 F       1  UNL1       -0.2054
      8 C           2.0526    1.1543   -0.8389 C.ar    1  UNL1       -0.0211
      9 C           1.8748    0.4658    0.3070 C.ar    1  UNL1       -0.0189
     10 C           0.6129   -0.2935    0.5929 C.3     1  UNL1        0.0502
     11 C          -0.0455    0.2939    1.7970 C.3     1  UNL1       -0.0422
     12 N          -0.3209   -0.2588   -0.5366 N.am    1  UNL1       -0.2751
     13 C          -1.0081    0.8905   -1.0022 C.2     1  UNL1        0.2480
     14 O          -1.7541    0.7090   -2.0801 O.2     1  UNL1       -0.2699
     15 C          -1.0874    2.2449   -0.5470 C.ar    1  UNL1        0.0369
     16 C          -1.9454    2.5553    0.5159 C.ar    1  UNL1       -0.0496
     17 C          -2.1186    3.8311    1.0017 C.ar    1  UNL1       -0.0610
     18 C          -1.4353    4.8865    0.4439 C.ar    1  UNL1       -0.0617
     19 C          -0.5813    4.6296   -0.6065 C.ar    1  UNL1       -0.0610
     20 C          -0.4251    3.3362   -1.0751 C.ar    1  UNL1       -0.0496
     21 C          -0.5726   -1.4872   -1.2720 C.3     1  UNL1        0.1280
     22 C           0.5965   -2.2039   -1.7668 C.2     1  UNL1        0.2356
     23 N           0.3857   -3.4371   -2.4969 N.am    1  UNL1       -0.3275
     24 O           1.7960   -1.8924   -1.6429 O.2     1  UNL1       -0.2736
     25 C          -1.5886   -2.3840   -0.6504 C.ar    1  UNL1       -0.0182
     26 C          -2.6059   -2.9538   -1.4384 C.ar    1  UNL1       -0.0563
     27 C          -3.5681   -3.7912   -0.9223 C.ar    1  UNL1       -0.0614
     28 C          -3.5592   -4.1013    0.4177 C.ar    1  UNL1       -0.0617
     29 C          -2.5841   -3.5652    1.2159 C.ar    1  UNL1       -0.0614
     30 C          -1.6188   -2.7155    0.6557 C.ar    1  UNL1       -0.0563
     31 H           2.5143    0.3246    3.3186 H       1  UNL1        0.0278
     32 H           2.3308   -1.2799    2.4782 H       1  UNL1        0.0278
     33 H           3.9588   -0.5194    2.7909 H       1  UNL1        0.0278
     34 H           5.1937    2.3522   -0.3965 H       1  UNL1        0.0675
     35 H           1.3166    1.1804   -1.6317 H       1  UNL1        0.0650
     36 H           0.9131   -1.3767    0.6966 H       1  UNL1        0.0548
     37 H           0.3502   -0.1962    2.7296 H       1  UNL1        0.0251
     38 H           0.2461    1.3510    1.8903 H       1  UNL1        0.0251
     39 H          -1.1573    0.1224    1.7766 H       1  UNL1        0.0251
     40 H          -2.5083    1.7444    0.9521 H       1  UNL1        0.0625
     41 H          -2.7929    4.0379    1.8336 H       1  UNL1        0.0618
     42 H          -1.5640    5.9113    0.8240 H       1  UNL1        0.0618
     43 H          -0.0313    5.4236   -1.0707 H       1  UNL1        0.0618
     44 H           0.2566    3.1694   -1.9297 H       1  UNL1        0.0625
     45 H          -1.1664   -1.1115   -2.1922 H       1  UNL1        0.0648
     46 H           0.9102   -3.6243   -3.3528 H       1  UNL1        0.1450
     47 H          -0.3034   -4.1051   -2.1219 H       1  UNL1        0.1450
     48 H          -2.5896   -2.6945   -2.4958 H       1  UNL1        0.0621
     49 H          -4.3320   -4.2028   -1.5734 H       1  UNL1        0.0618
     50 H          -4.3265   -4.7733    0.8481 H       1  UNL1        0.0618
     51 H          -2.5813   -3.8120    2.2658 H       1  UNL1        0.0618
     52 H          -0.9024   -2.3572    1.3711 H       1  UNL1        0.0621
@<TRIPOS>BOND
     1     1     2    1
     2     2     3   ar
     3     3     4    1
     4     3     5   ar
     5     5     6   ar
     6     6     7    1
     7     6     8   ar
     8     8     9   ar
     9     9    10    1
    10    10    11    1
    11    10    12    1
    12    12    13   am
    13    13    14    2
    14    13    15    1
    15    15    16   ar
    16    16    17   ar
    17    17    18   ar
    18    18    19   ar
    19    19    20   ar
    20    12    21    1
    21    21    22    1
    22    22    23   am
    23    22    24    2
    24    21    25    1
    25    25    26   ar
    26    26    27   ar
    27    27    28   ar
    28    28    29   ar
    29    29    30   ar
    30     9     2   ar
    31    20    15   ar
    32    30    25   ar
    33     1    31    1
    34     1    32    1
    35     1    33    1
    36     5    34    1
    37     8    35    1
    38    10    36    1
    39    11    37    1
    40    11    38    1
    41    11    39    1
    42    16    40    1
    43    17    41    1
    44    18    42    1
    45    19    43    1
    46    20    44    1
    47    21    45    1
    48    23    46    1
    49    23    47    1
    50    26    48    1
    51    27    49    1
    52    28    50    1
    53    29    51    1
    54    30    52    1
@<TRIPOS>MOLECULE
50333180
 35 36 0 0 0
SMALL
GASTEIGER

@<TRIPOS>ATOM
      1 C          -3.2877   -0.0779    1.5914 C.3     1  UNL1       -0.0380
      2 C          -3.8199   -0.1688    0.2140 C.ar    1  UNL1       -0.0292
      3 C          -5.1676   -0.2821   -0.0372 C.ar    1  UNL1       -0.0571
      4 C          -5.6723   -0.3676   -1.3256 C.ar    1  UNL1       -0.0614
      5 C          -4.7672   -0.3351   -2.3668 C.ar    1  UNL1       -0.0600
      6 C          -3.3923   -0.2206   -2.1423 C.ar    1  UNL1       -0.0402
      7 C          -2.9539   -0.1397   -0.8371 C.ar    1  UNL1        0.0366
      8 N          -1.5383   -0.0202   -0.5611 N.am    1  UNL1       -0.2818
      9 C          -0.7379   -1.1771   -0.3794 C.2     1  UNL1        0.2411
     10 O          -1.3768   -2.2828   -0.4820 O.2     1  UNL1       -0.2705
     11 C           0.6837   -1.1694   -0.0999 C.2     1  UNL1        0.0010
     12 C           1.4056   -0.0774    0.0193 C.2     1  UNL1       -0.0495
     13 C           2.8303   -0.0351    0.2988 C.ar    1  UNL1       -0.0185
     14 C           3.5706   -1.1813    0.4683 C.ar    1  UNL1       -0.0542
     15 C           4.9369   -1.0356    0.7340 C.ar    1  UNL1       -0.0548
     16 C           5.5221    0.2162    0.8231 C.ar    1  UNL1        0.0156
     17 C           4.7698    1.3582    0.6513 C.ar    1  UNL1        0.2737
     18 N           5.3374    2.6567    0.7360 N.pl3   1  UNL1        0.0796
     19 O           6.5363    2.7901    0.9690 O.2     1  UNL1        0.0414
     20 O           4.5657    3.7743    0.5610 O.co2   1  UNL1       -0.5760
     21 C           3.4365    1.1967    0.3924 C.ar    1  UNL1        0.0227
     22 H          -3.2883   -1.0470    2.1266 H       1  UNL1        0.0278
     23 H          -3.9381    0.6219    2.1826 H       1  UNL1        0.0278
     24 H          -2.2787    0.3476    1.6243 H       1  UNL1        0.0278
     25 H          -5.8734   -0.3074    0.7769 H       1  UNL1        0.0621
     26 H          -6.7344   -0.4574   -1.5353 H       1  UNL1        0.0618
     27 H          -5.1053   -0.3985   -3.3985 H       1  UNL1        0.0618
     28 H          -2.6853   -0.1959   -2.9747 H       1  UNL1        0.0636
     29 H          -1.0951    0.9190   -0.4935 H       1  UNL1        0.1551
     30 H           1.1764   -2.1210    0.0169 H       1  UNL1        0.0670
     31 H           0.8569    0.8706   -0.1084 H       1  UNL1        0.0625
     32 H           3.1383   -2.1731    0.4039 H       1  UNL1        0.0623
     33 H           5.5268   -1.9358    0.8688 H       1  UNL1        0.0620
     34 H           6.5711    0.3382    1.0270 H       1  UNL1        0.0685
     35 H           2.8480    2.1174    0.2574 H       1  UNL1        0.0691
@<TRIPOS>UNITY_ATOM_ATTR
18 1
charge 1
20 1
charge -1
@<TRIPOS>BOND
     1     1     2    1
     2     2     3   ar
     3     3     4   ar
     4     4     5   ar
     5     5     6   ar
     6     6     7   ar
     7     7     8    1
     8     8     9   am
     9     9    10    2
    10     9    11    1
    11    11    12    2
    12    12    13    1
    13    13    14   ar
    14    14    15   ar
    15    15    16   ar
    16    16    17   ar
    17    17    18    1
    18    18    19    2
    19    18    20    1
    20    17    21   ar
    21     7     2   ar
    22    21    13   ar
    23     1    22    1
    24     1    23    1
    25     1    24    1
    26     3    25    1
    27     4    26    1
    28     5    27    1
    29     6    28    1
    30     8    29    1
    31    11    30    1
    32    12    31    1
    33    14    32    1
    34    15    33    1
    35    16    34    1
    36    21    35    1
@<TRIPOS>MOLECULE
CHEMBL2442034
 55 58 0 0 0
SMALL
GASTEIGER

@<TRIPOS>ATOM
      1 N          -4.2057    1.9795   -1.6389 N.3     1  UNL1       -0.3272
      2 C          -3.7755    1.6060   -0.2805 C.3     1  UNL1        0.0065
      3 C          -4.8807    1.0548    0.5083 C.3     1  UNL1       -0.0376
      4 C          -4.6787   -0.1863    1.2706 C.3     1  UNL1       -0.0500
      5 C          -3.4786   -1.0121    0.9356 C.3     1  UNL1       -0.0342
      6 C          -2.3009   -0.0678    0.8247 C.3     1  UNL1        0.0280
      7 N          -1.0278   -0.7042    0.7909 N.am    1  UNL1       -0.2913
      8 C          -0.6406   -1.6428   -0.2047 C.2     1  UNL1        0.2506
      9 O          -1.4813   -1.9215   -1.1022 O.2     1  UNL1       -0.2698
     10 C           0.6465   -2.2833   -0.2397 C.ar    1  UNL1        0.0785
     11 C           0.8671   -3.4713    0.4002 C.ar    1  UNL1       -0.0461
     12 C           2.1356   -4.0427    0.3284 C.ar    1  UNL1       -0.0608
     13 C           3.1497   -3.4258   -0.3727 C.ar    1  UNL1       -0.0583
     14 C           2.9169   -2.2203   -1.0193 C.ar    1  UNL1       -0.0192
     15 C           1.6765   -1.6374   -0.9629 C.ar    1  UNL1        0.1331
     16 O           1.3631   -0.4904   -1.5492 O.3     1  UNL1       -0.4866
     17 C           2.0069    0.4352   -2.3018 C.3     1  UNL1        0.1147
     18 C           3.1413    1.1645   -1.7281 C.ar    1  UNL1       -0.0104
     19 C           2.9709    2.2637   -0.8784 C.ar    1  UNL1       -0.0554
     20 C           4.0135    2.9816   -0.3645 C.ar    1  UNL1       -0.0614
     21 C           5.3040    2.6222   -0.6864 C.ar    1  UNL1       -0.0617
     22 C           5.5179    1.5550   -1.5134 C.ar    1  UNL1       -0.0614
     23 C           4.4346    0.8433   -2.0214 C.ar    1  UNL1       -0.0554
     24 C          -0.0584   -0.3862    1.8245 C.3     1  UNL1        0.0267
     25 C           0.0225    1.0004    2.3536 C.3     1  UNL1       -0.0326
     26 C          -0.5038   -0.1309    3.2146 C.3     1  UNL1       -0.0326
     27 C          -2.5701    0.7309   -0.4459 C.3     1  UNL1       -0.0190
     28 H          -3.8397    1.2869   -2.3417 H       1  UNL1        0.1185
     29 H          -5.2504    1.9461   -1.7088 H       1  UNL1        0.1185
     30 H          -3.4229    2.5629    0.1749 H       1  UNL1        0.0459
     31 H          -5.7581    0.8900   -0.1885 H       1  UNL1        0.0280
     32 H          -5.2819    1.8372    1.2205 H       1  UNL1        0.0280
     33 H          -5.5703   -0.8783    1.1952 H       1  UNL1        0.0266
     34 H          -4.6165    0.0246    2.3806 H       1  UNL1        0.0266
     35 H          -3.2834   -1.7304    1.7436 H       1  UNL1        0.0283
     36 H          -3.5774   -1.5071   -0.0537 H       1  UNL1        0.0283
     37 H          -2.3706    0.6132    1.7013 H       1  UNL1        0.0501
     38 H           0.0598   -3.9431    0.9466 H       1  UNL1        0.0626
     39 H           2.2762   -4.9812    0.8452 H       1  UNL1        0.0618
     40 H           4.1090   -3.9230   -0.3882 H       1  UNL1        0.0619
     41 H           3.7479   -1.8092   -1.5501 H       1  UNL1        0.0654
     42 H           1.3202    1.2332   -2.7211 H       1  UNL1        0.0748
     43 H           2.3358   -0.0909   -3.2717 H       1  UNL1        0.0748
     44 H           1.9542    2.5424   -0.6284 H       1  UNL1        0.0621
     45 H           3.8910    3.8274    0.2895 H       1  UNL1        0.0618
     46 H           6.1566    3.1630   -0.3015 H       1  UNL1        0.0618
     47 H           6.5248    1.2620   -1.7741 H       1  UNL1        0.0618
     48 H           4.6992    0.0145   -2.6801 H       1  UNL1        0.0621
     49 H           0.9043   -0.9162    1.7313 H       1  UNL1        0.0501
     50 H           1.0126    1.3961    2.6876 H       1  UNL1        0.0284
     51 H          -0.6938    1.7918    2.0206 H       1  UNL1        0.0284
     52 H           0.1226   -0.4996    4.0520 H       1  UNL1        0.0284
     53 H          -1.5765   -0.0280    3.4699 H       1  UNL1        0.0284
     54 H          -2.7609   -0.0103   -1.2462 H       1  UNL1        0.0298
     55 H          -1.6767    1.3118   -0.7452 H       1  UNL1        0.0298
@<TRIPOS>BOND
     1     1     2    1
     2     2     3    1
     3     3     4    1
     4     4     5    1
     5     5     6    1
     6     6     7    1
     7     7     8   am
     8     8     9    2
     9     8    10    1
    10    10    11   ar
    11    11    12   ar
    12    12    13   ar
    13    13    14   ar
    14    14    15   ar
    15    15    16    1
    16    16    17    1
    17    17    18    1
    18    18    19   ar
    19    19    20   ar
    20    20    21   ar
    21    21    22   ar
    22    22    23   ar
    23     7    24    1
    24    24    25    1
    25    25    26    1
    26     6    27    1
    27    27     2    1
    28    15    10   ar
    29    23    18   ar
    30    26    24    1
    31     1    28    1
    32     1    29    1
    33     2    30    1
    34     3    31    1
    35     3    32    1
    36     4    33    1
    37     4    34    1
    38     5    35    1
    39     5    36    1
    40     6    37    1
    41    11    38    1
    42    12    39    1
    43    13    40    1
    44    14    41    1
    45    17    42    1
    46    17    43    1
    47    19    44    1
    48    20    45    1
    49    21    46    1
    50    22    47    1
    51    23    48    1
    52    24    49    1
    53    25    50    1
    54    25    51    1
    55    26    52    1
    56    26    53    1
    57    27    54    1
    58    27    55    1
@<TRIPOS>MOLECULE
50543022
 52 54 0 0 0
SMALL
GASTEIGER

@<TRIPOS>ATOM
      1 C           4.7462   -2.5272    1.7621 C.3     1  UNL1       -0.0397
      2 C           4.3053   -1.3899    0.9226 C.ar    1  UNL1       -0.0497
      3 C           5.0092   -0.9806   -0.1941 C.ar    1  UNL1       -0.0588
      4 C           4.5763    0.0835   -0.9557 C.ar    1  UNL1       -0.0608
      5 C           3.4319    0.7756   -0.6338 C.ar    1  UNL1       -0.0496
      6 C           2.7297    0.3589    0.4898 C.ar    1  UNL1        0.0372
      7 C           1.5280    1.0925    0.8437 C.2     1  UNL1        0.2480
      8 O           1.5640    1.7842    1.8962 O.2     1  UNL1       -0.2699
      9 N           0.3157    1.0923    0.0937 N.am    1  UNL1       -0.2751
     10 C           0.3205    0.2766   -1.0910 C.3     1  UNL1        0.0498
     11 C           0.0832    0.9346   -2.3911 C.3     1  UNL1       -0.0422
     12 C          -0.5519   -0.9295   -0.8828 C.ar    1  UNL1       -0.0259
     13 C          -1.4636   -1.3741   -1.7995 C.ar    1  UNL1       -0.0567
     14 C          -2.2334   -2.5110   -1.5483 C.ar    1  UNL1       -0.0601
     15 C          -2.0799   -3.2140   -0.3452 C.ar    1  UNL1       -0.0434
     16 C          -1.1647   -2.7675    0.5746 C.ar    1  UNL1        0.0413
     17 CL         -0.9685   -3.6585    2.0737 Cl      1  UNL1       -0.0835
     18 C          -0.3993   -1.6247    0.3083 C.ar    1  UNL1       -0.0384
     19 C          -0.7687    1.8682    0.6013 C.3     1  UNL1        0.1280
     20 C          -0.8782    3.1288   -0.2321 C.2     1  UNL1        0.2356
     21 N          -2.0391    3.9058   -0.0974 N.am    1  UNL1       -0.3275
     22 O           0.0457    3.4285   -0.9925 O.2     1  UNL1       -0.2736
     23 C          -2.0947    1.2922    0.6359 C.ar    1  UNL1       -0.0182
     24 C          -3.0266    1.4597   -0.3808 C.ar    1  UNL1       -0.0563
     25 C          -4.3005    0.9481   -0.3197 C.ar    1  UNL1       -0.0614
     26 C          -4.7019    0.2320    0.7871 C.ar    1  UNL1       -0.0617
     27 C          -3.7935    0.0504    1.8109 C.ar    1  UNL1       -0.0614
     28 C          -2.5278    0.5739    1.7194 C.ar    1  UNL1       -0.0563
     29 C           3.1679   -0.7185    1.2602 C.ar    1  UNL1       -0.0467
     30 H           4.4115   -3.5098    1.4104 H       1  UNL1        0.0278
     31 H           4.3669   -2.3400    2.8107 H       1  UNL1        0.0278
     32 H           5.8592   -2.5012    1.7605 H       1  UNL1        0.0278
     33 H           5.9110   -1.5370   -0.4385 H       1  UNL1        0.0620
     34 H           5.1290    0.4113   -1.8433 H       1  UNL1        0.0618
     35 H           3.1177    1.5937   -1.2440 H       1  UNL1        0.0625
     36 H           1.3451   -0.1953   -1.1756 H       1  UNL1        0.0548
     37 H           0.1639    0.0945   -3.1688 H       1  UNL1        0.0251
     38 H           0.9479    1.5724   -2.6640 H       1  UNL1        0.0251
     39 H          -0.9056    1.3510   -2.5863 H       1  UNL1        0.0251
     40 H          -1.5630   -0.8196   -2.7198 H       1  UNL1        0.0621
     41 H          -2.9325   -2.8083   -2.3160 H       1  UNL1        0.0618
     42 H          -2.7027   -4.0818   -0.2070 H       1  UNL1        0.0632
     43 H           0.3055   -1.3268    1.0772 H       1  UNL1        0.0635
     44 H          -0.4361    2.3009    1.6001 H       1  UNL1        0.0648
     45 H          -2.4514    4.0133    0.8576 H       1  UNL1        0.1450
     46 H          -2.5170    4.3797   -0.9099 H       1  UNL1        0.1450
     47 H          -2.7423    2.0090   -1.2592 H       1  UNL1        0.0621
     48 H          -5.0089    1.0908   -1.1176 H       1  UNL1        0.0618
     49 H          -5.7189   -0.1842    0.8574 H       1  UNL1        0.0618
     50 H          -4.1345   -0.5177    2.6832 H       1  UNL1        0.0618
     51 H          -1.8484    0.4146    2.5373 H       1  UNL1        0.0621
     52 H           2.5727   -0.9998    2.1399 H       1  UNL1        0.0628
@<TRIPOS>BOND
     1     1     2    1
     2     2     3   ar
     3     3     4   ar
     4     4     5   ar
     5     5     6   ar
     6     6     7    1
     7     7     8    2
     8     7     9   am
     9     9    10    1
    10    10    11    1
    11    10    12    1
    12    12    13   ar
    13    13    14   ar
    14    14    15   ar
    15    15    16   ar
    16    16    17    1
    17    16    18   ar
    18     9    19    1
    19    19    20    1
    20    20    21   am
    21    20    22    2
    22    19    23    1
    23    23    24   ar
    24    24    25   ar
    25    25    26   ar
    26    26    27   ar
    27    27    28   ar
    28     6    29   ar
    29    29     2   ar
    30    18    12   ar
    31    28    23   ar
    32     1    30    1
    33     1    31    1
    34     1    32    1
    35     3    33    1
    36     4    34    1
    37     5    35    1
    38    10    36    1
    39    11    37    1
    40    11    38    1
    41    11    39    1
    42    13    40    1
    43    14    41    1
    44    15    42    1
    45    18    43    1
    46    19    44    1
    47    21    45    1
    48    21    46    1
    49    24    47    1
    50    25    48    1
    51    26    49    1
    52    27    50    1
    53    28    51    1
    54    29    52    1
@<TRIPOS>MOLECULE
51467441
 50 54 0 0 0
SMALL
GASTEIGER

@<TRIPOS>ATOM
      1 O           2.3083   -2.2272    1.3269 O.2     1  UNL1       -0.2727
      2 C           1.6201   -1.4397    0.6467 C.2     1  UNL1        0.2483
      3 C           0.1856   -1.5556    0.3181 C.3     1  UNL1        0.1095
      4 C          -0.6087   -2.3074    1.3887 C.3     1  UNL1        0.0001
      5 C          -2.0105   -2.2172    0.9204 C.ar    1  UNL1       -0.0362
      6 C          -2.7812   -3.3436    0.8763 C.ar    1  UNL1       -0.0130
      7 C          -4.0879   -3.2174    0.4168 C.ar    1  UNL1        0.1585
      8 O          -4.8616   -4.3522    0.3733 O.3     1  UNL1       -0.5033
      9 C          -4.5683   -1.9742    0.0217 C.ar    1  UNL1        0.1586
     10 O          -5.8847   -1.8470   -0.4415 O.3     1  UNL1       -0.5033
     11 C          -3.7971   -0.8440    0.0655 C.ar    1  UNL1       -0.0110
     12 C          -2.4804   -0.9857    0.5316 C.ar    1  UNL1       -0.0156
     13 C          -1.5839    0.1745    0.6266 C.3     1  UNL1        0.0791
     14 C          -2.0984    1.3674   -0.0812 C.ar    1  UNL1       -0.0224
     15 C          -1.9562    1.5687   -1.4415 C.ar    1  UNL1       -0.0538
     16 C          -2.4593    2.7061   -2.0478 C.ar    1  UNL1       -0.0261
     17 C          -3.1198    3.6731   -1.3015 C.ar    1  UNL1        0.1234
     18 F          -3.6279    4.8023   -1.8562 F       1  UNL1       -0.2055
     19 C          -3.2701    3.4933    0.0398 C.ar    1  UNL1       -0.0261
     20 C          -2.7607    2.3527    0.6212 C.ar    1  UNL1       -0.0538
     21 N          -0.2555   -0.1775    0.2545 N.am    1  UNL1       -0.2619
     22 C           0.9083    0.5423   -0.2141 C.2     1  UNL1        0.3170
     23 O           0.8245    1.6694   -0.7385 O.2     1  UNL1       -0.2516
     24 N           2.0699   -0.2413    0.0295 N.am    1  UNL1       -0.1925
     25 C           3.4317    0.1178   -0.2901 C.ar    1  UNL1        0.0460
     26 C           3.9847   -0.2086   -1.5088 C.ar    1  UNL1       -0.0398
     27 C           5.2837    0.1435   -1.7917 C.ar    1  UNL1       -0.0595
     28 C           6.0302    0.8198   -0.8610 C.ar    1  UNL1       -0.0500
     29 C           5.4766    1.1459    0.3576 C.ar    1  UNL1        0.0566
     30 C           6.2993    1.8862    1.3716 C.3     1  UNL1        0.4175
     31 F           7.6320    1.5663    1.1514 F       1  UNL1       -0.1659
     32 F           5.9519    1.4316    2.6177 F       1  UNL1       -0.1659
     33 F           6.0535    3.2179    1.1982 F       1  UNL1       -0.1659
     34 C           4.1801    0.7905    0.6305 C.ar    1  UNL1       -0.0282
     35 H           0.0651   -2.0933   -0.6309 H       1  UNL1        0.0601
     36 H          -0.2224   -3.3372    1.4165 H       1  UNL1        0.0336
     37 H          -0.5509   -1.7755    2.3547 H       1  UNL1        0.0336
     38 H          -2.4248   -4.3303    1.1816 H       1  UNL1        0.0658
     39 H          -4.7258   -5.0888   -0.3231 H       1  UNL1        0.2923
     40 H          -6.0167   -1.9720   -1.4515 H       1  UNL1        0.2923
     41 H          -4.0942    0.1435   -0.2202 H       1  UNL1        0.0659
     42 H          -1.5441    0.4275    1.7255 H       1  UNL1        0.0602
     43 H          -1.4455    0.8242   -2.0324 H       1  UNL1        0.0622
     44 H          -2.3704    2.9034   -3.1076 H       1  UNL1        0.0646
     45 H          -3.7722    4.2134    0.6507 H       1  UNL1        0.0646
     46 H          -2.8957    2.2362    1.6941 H       1  UNL1        0.0622
     47 H           3.4289   -0.7381   -2.2616 H       1  UNL1        0.0636
     48 H           5.7655   -0.0957   -2.7493 H       1  UNL1        0.0618
     49 H           7.0636    1.1147   -1.0518 H       1  UNL1        0.0623
     50 H           3.7111    1.0370    1.5944 H       1  UNL1        0.0642
@<TRIPOS>BOND
     1     1     2    2
     2     2     3    1
     3     3     4    1
     4     4     5    1
     5     5     6   ar
     6     6     7   ar
     7     7     8    1
     8     7     9   ar
     9     9    10    1
    10     9    11   ar
    11    11    12   ar
    12    12    13    1
    13    13    14    1
    14    14    15   ar
    15    15    16   ar
    16    16    17   ar
    17    17    18    1
    18    17    19   ar
    19    19    20   ar
    20    13    21    1
    21    21    22   am
    22    22    23    2
    23    22    24   am
    24    24    25    1
    25    25    26   ar
    26    26    27   ar
    27    27    28   ar
    28    28    29   ar
    29    29    30    1
    30    30    31    1
    31    30    32    1
    32    30    33    1
    33    29    34   ar
    34    24     2   am
    35    34    25   ar
    36    21     3    1
    37    12     5   ar
    38    20    14   ar
    39     3    35    1
    40     4    36    1
    41     4    37    1
    42     6    38    1
    43     8    39    1
    44    10    40    1
    45    11    41    1
    46    13    42    1
    47    15    43    1
    48    16    44    1
    49    19    45    1
    50    20    46    1
    51    26    47    1
    52    27    48    1
    53    28    49    1
    54    34    50    1
@<TRIPOS>MOLECULE
51366416
 49 51 0 0 0
SMALL
GASTEIGER

@<TRIPOS>ATOM
      1 C           0.0030   -1.3622    1.8425 C.3     1  UNL1       -0.0421
      2 C          -0.6615   -0.7253    0.6864 C.3     1  UNL1        0.0526
      3 C          -1.5100   -1.7285   -0.0105 C.ar    1  UNL1        0.0135
      4 C          -1.2586   -2.3555   -1.1811 C.ar    1  UNL1       -0.0186
      5 C          -2.1807   -3.2746   -1.7110 C.ar    1  UNL1        0.1266
      6 F          -1.9119   -3.8865   -2.8870 F       1  UNL1       -0.2054
      7 C          -3.3488   -3.5505   -1.0475 C.ar    1  UNL1        0.0117
      8 C          -3.6371   -2.9263    0.1534 C.ar    1  UNL1        0.1614
      9 F          -4.8108   -3.2057    0.8132 F       1  UNL1       -0.2024
     10 C          -2.7221   -2.0457    0.6313 C.ar    1  UNL1        0.1635
     11 F          -2.9931   -1.4276    1.8111 F       1  UNL1       -0.2021
     12 N           0.2234    0.0371   -0.1942 N.am    1  UNL1       -0.2750
     13 C          -0.1681    1.3880   -0.3916 C.2     1  UNL1        0.2480
     14 O           0.5293    2.1125   -1.1349 O.2     1  UNL1       -0.2699
     15 C          -1.3253    2.0143    0.1962 C.ar    1  UNL1        0.0369
     16 C          -1.4237    2.3585    1.5153 C.ar    1  UNL1       -0.0496
     17 C          -2.5682    2.9768    2.0294 C.ar    1  UNL1       -0.0610
     18 C          -3.6275    3.2485    1.1985 C.ar    1  UNL1       -0.0617
     19 C          -3.5516    2.9087   -0.1368 C.ar    1  UNL1       -0.0610
     20 C          -2.4138    2.2979   -0.6375 C.ar    1  UNL1       -0.0496
     21 C           1.4302   -0.4604   -0.7781 C.3     1  UNL1        0.1280
     22 C           1.5950   -0.2952   -2.2318 C.2     1  UNL1        0.2356
     23 N           2.8256   -0.7832   -2.7752 N.am    1  UNL1       -0.3275
     24 O           0.7238    0.2399   -2.9609 O.2     1  UNL1       -0.2736
     25 C           2.6947    0.1739   -0.1938 C.ar    1  UNL1       -0.0182
     26 C           3.3135    1.2243   -0.8052 C.ar    1  UNL1       -0.0563
     27 C           4.4794    1.7433   -0.2456 C.ar    1  UNL1       -0.0614
     28 C           5.0425    1.2384    0.9047 C.ar    1  UNL1       -0.0617
     29 C           4.3802    0.1757    1.4848 C.ar    1  UNL1       -0.0614
     30 C           3.2310   -0.3565    0.9599 C.ar    1  UNL1       -0.0563
     31 H           0.5734   -2.2844    1.6248 H       1  UNL1        0.0251
     32 H          -0.7858   -1.6492    2.5809 H       1  UNL1        0.0251
     33 H           0.6321   -0.6045    2.3807 H       1  UNL1        0.0251
     34 H          -1.4431    0.0023    1.1076 H       1  UNL1        0.0549
     35 H          -0.3673   -2.1461   -1.7032 H       1  UNL1        0.0650
     36 H          -4.0732   -4.2517   -1.4311 H       1  UNL1        0.0676
     37 H          -0.5779    2.1267    2.1658 H       1  UNL1        0.0625
     38 H          -2.5718    3.2292    3.0714 H       1  UNL1        0.0618
     39 H          -4.5434    3.7304    1.5599 H       1  UNL1        0.0618
     40 H          -4.3966    3.1331   -0.7612 H       1  UNL1        0.0618
     41 H          -2.4044    2.0613   -1.6760 H       1  UNL1        0.0625
     42 H           1.5536   -1.5704   -0.5686 H       1  UNL1        0.0648
     43 H           2.8330   -1.4392   -3.5833 H       1  UNL1        0.1450
     44 H           3.7642   -0.5148   -2.3973 H       1  UNL1        0.1450
     45 H           2.9629    1.6663   -1.7372 H       1  UNL1        0.0621
     46 H           4.9742    2.5797   -0.7257 H       1  UNL1        0.0618
     47 H           5.9639    1.6655    1.3342 H       1  UNL1        0.0618
     48 H           4.8001   -0.2680    2.4122 H       1  UNL1        0.0618
     49 H           2.7475   -1.2202    1.4419 H       1  UNL1        0.0621
@<TRIPOS>BOND
     1     1     2    1
     2     2     3    1
     3     3     4   ar
     4     4     5   ar
     5     5     6    1
     6     5     7   ar
     7     7     8   ar
     8     8     9    1
     9     8    10   ar
    10    10    11    1
    11     2    12    1
    12    12    13   am
    13    13    14    2
    14    13    15    1
    15    15    16   ar
    16    16    17   ar
    17    17    18   ar
    18    18    19   ar
    19    19    20   ar
    20    12    21    1
    21    21    22    1
    22    22    23   am
    23    22    24    2
    24    21    25    1
    25    25    26   ar
    26    26    27   ar
    27    27    28   ar
    28    28    29   ar
    29    29    30   ar
    30    10     3   ar
    31    20    15   ar
    32    30    25   ar
    33     1    31    1
    34     1    32    1
    35     1    33    1
    36     2    34    1
    37     4    35    1
    38     7    36    1
    39    16    37    1
    40    17    38    1
    41    18    39    1
    42    19    40    1
    43    20    41    1
    44    21    42    1
    45    23    43    1
    46    23    44    1
    47    26    45    1
    48    27    46    1
    49    28    47    1
    50    29    48    1
    51    30    49    1
@<TRIPOS>MOLECULE
50254068
 45 45 0 0 0
SMALL
GASTEIGER

@<TRIPOS>ATOM
      1 C          -6.7683    1.4847   -0.9981 C.3     1  UNL1       -0.0440
      2 C          -5.7568    0.4769   -0.5845 C.2     1  UNL1       -0.0796
      3 C          -6.0685   -0.5300    0.4715 C.3     1  UNL1       -0.0440
      4 C          -4.5624    0.4657   -1.1554 C.2     1  UNL1       -0.0850
      5 C          -3.5406   -0.5552   -0.7350 C.3     1  UNL1       -0.0308
      6 C          -2.3293    0.1996   -0.2052 C.3     1  UNL1       -0.0285
      7 C          -1.2616   -0.6848    0.2370 C.2     1  UNL1       -0.0748
      8 C          -1.5684   -1.6604    1.3565 C.3     1  UNL1       -0.0437
      9 C          -0.0408   -0.7350   -0.2310 C.2     1  UNL1       -0.0681
     10 C           0.4323    0.1257   -1.3050 C.3     1  UNL1        0.0302
     11 N           1.5471    0.9643   -0.8990 N.am    1  UNL1       -0.3115
     12 C           2.7799    0.4328   -0.4356 C.2     1  UNL1        0.2176
     13 O           2.9059   -0.8166   -0.3765 O.2     1  UNL1       -0.2755
     14 C           3.9077    1.3342   -0.0253 C.3     1  UNL1        0.0491
     15 C           5.0812    0.5854    0.4179 C.ar    1  UNL1       -0.0385
     16 C           5.2774    0.2140    1.7239 C.ar    1  UNL1       -0.0567
     17 C           6.3887   -0.4915    2.1260 C.ar    1  UNL1       -0.0431
     18 C           7.3145   -0.8206    1.1668 C.ar    1  UNL1        0.0410
     19 CL          8.7346   -1.7162    1.6506 Cl      1  UNL1       -0.0835
     20 C           7.1579   -0.4687   -0.1529 C.ar    1  UNL1       -0.0431
     21 C           6.0373    0.2324   -0.5066 C.ar    1  UNL1       -0.0567
     22 H          -6.3358    2.5172   -0.9914 H       1  UNL1        0.0274
     23 H          -7.6359    1.3972   -0.3254 H       1  UNL1        0.0274
     24 H          -7.0834    1.2741   -2.0529 H       1  UNL1        0.0274
     25 H          -7.0713   -0.2930    0.9231 H       1  UNL1        0.0274
     26 H          -6.1358   -1.5564    0.0467 H       1  UNL1        0.0274
     27 H          -5.3218   -0.4803    1.2851 H       1  UNL1        0.0274
     28 H          -4.3428    1.1881   -1.9113 H       1  UNL1        0.0572
     29 H          -3.2699   -1.1176   -1.6532 H       1  UNL1        0.0310
     30 H          -3.9507   -1.2685   -0.0160 H       1  UNL1        0.0310
     31 H          -2.7348    0.7956    0.6803 H       1  UNL1        0.0313
     32 H          -2.1014    0.9622   -0.9456 H       1  UNL1        0.0313
     33 H          -0.6893   -1.6591    2.0509 H       1  UNL1        0.0274
     34 H          -1.6939   -2.6645    0.8969 H       1  UNL1        0.0274
     35 H          -2.4543   -1.3281    1.9279 H       1  UNL1        0.0274
     36 H           0.6976   -1.4642    0.1946 H       1  UNL1        0.0587
     37 H           0.7425   -0.5133   -2.1882 H       1  UNL1        0.0506
     38 H          -0.3541    0.7737   -1.7009 H       1  UNL1        0.0506
     39 H           1.4811    2.0071   -0.9336 H       1  UNL1        0.1490
     40 H           4.1298    2.0049   -0.8679 H       1  UNL1        0.0407
     41 H           3.5330    1.9409    0.8332 H       1  UNL1        0.0407
     42 H           4.5503    0.4651    2.5142 H       1  UNL1        0.0621
     43 H           6.5611   -0.7931    3.1497 H       1  UNL1        0.0632
     44 H           7.8909   -0.7302   -0.9080 H       1  UNL1        0.0632
     45 H           5.9210    0.5056   -1.5463 H       1  UNL1        0.0621
@<TRIPOS>BOND
     1     1     2    1
     2     2     3    1
     3     2     4    2
     4     4     5    1
     5     5     6    1
     6     6     7    1
     7     7     8    1
     8     7     9    2
     9     9    10    1
    10    10    11    1
    11    11    12   am
    12    12    13    2
    13    12    14    1
    14    14    15    1
    15    15    16   ar
    16    16    17   ar
    17    17    18   ar
    18    18    19    1
    19    18    20   ar
    20    20    21   ar
    21    21    15   ar
    22     1    22    1
    23     1    23    1
    24     1    24    1
    25     3    25    1
    26     3    26    1
    27     3    27    1
    28     4    28    1
    29     5    29    1
    30     5    30    1
    31     6    31    1
    32     6    32    1
    33     8    33    1
    34     8    34    1
    35     8    35    1
    36     9    36    1
    37    10    37    1
    38    10    38    1
    39    11    39    1
    40    14    40    1
    41    14    41    1
    42    16    42    1
    43    17    43    1
    44    20    44    1
    45    21    45    1
@<TRIPOS>MOLECULE
50254069
 48 48 0 0 0
SMALL
GASTEIGER

@<TRIPOS>ATOM
      1 C           5.9912    2.6940    0.4613 C.3     1  UNL1       -0.0440
      2 C           5.4110    1.3382    0.5223 C.2     1  UNL1       -0.0796
      3 C           5.7740    0.4142    1.6038 C.3     1  UNL1       -0.0440
      4 C           4.5544    0.9490   -0.4063 C.2     1  UNL1       -0.0850
      5 C           3.9462   -0.4226   -0.3736 C.3     1  UNL1       -0.0308
      6 C           2.4223   -0.2658   -0.2733 C.3     1  UNL1       -0.0285
      7 C           1.7879   -1.5790   -0.2386 C.2     1  UNL1       -0.0748
      8 C           2.1912   -2.4699    0.9196 C.3     1  UNL1       -0.0437
      9 C           0.9257   -2.0138   -1.1147 C.2     1  UNL1       -0.0681
     10 C           0.4766   -1.2336   -2.2600 C.3     1  UNL1        0.0302
     11 N          -0.9844   -1.0823   -2.1255 N.am    1  UNL1       -0.3117
     12 C          -1.5573   -0.4541   -1.0189 C.2     1  UNL1        0.2136
     13 O          -0.8079   -0.0011   -0.1047 O.2     1  UNL1       -0.2758
     14 C          -3.0095   -0.2740   -0.8303 C.3     1  UNL1        0.0279
     15 C          -3.3686    0.4292    0.4365 C.3     1  UNL1       -0.0194
     16 C          -4.8399    0.5532    0.5195 C.ar    1  UNL1       -0.0469
     17 C          -5.6261   -0.4047    1.1111 C.ar    1  UNL1       -0.0586
     18 C          -7.0129   -0.2736    1.1817 C.ar    1  UNL1       -0.0615
     19 C          -7.5903    0.8442    0.6428 C.ar    1  UNL1       -0.0617
     20 C          -6.8341    1.8276    0.0406 C.ar    1  UNL1       -0.0615
     21 C          -5.4509    1.6651   -0.0128 C.ar    1  UNL1       -0.0586
     22 H           6.7339    2.8583    1.2625 H       1  UNL1        0.0274
     23 H           5.1678    3.4285    0.5714 H       1  UNL1        0.0274
     24 H           6.4247    2.8254   -0.5476 H       1  UNL1        0.0274
     25 H           6.5179    0.8584    2.2951 H       1  UNL1        0.0274
     26 H           6.1529   -0.5371    1.1657 H       1  UNL1        0.0274
     27 H           4.8908    0.1530    2.2168 H       1  UNL1        0.0274
     28 H           4.2884    1.6193   -1.1943 H       1  UNL1        0.0572
     29 H           4.1894   -1.0022   -1.2696 H       1  UNL1        0.0310
     30 H           4.2540   -0.9653    0.5452 H       1  UNL1        0.0310
     31 H           2.2896    0.1716    0.7665 H       1  UNL1        0.0313
     32 H           2.0263    0.4879   -0.9345 H       1  UNL1        0.0313
     33 H           1.3261   -3.1118    1.2024 H       1  UNL1        0.0274
     34 H           3.0670   -3.0714    0.6545 H       1  UNL1        0.0274
     35 H           2.4061   -1.8456    1.8107 H       1  UNL1        0.0274
     36 H           0.5295   -3.0314   -0.9576 H       1  UNL1        0.0587
     37 H           0.6999   -1.7451   -3.2462 H       1  UNL1        0.0506
     38 H           0.8596   -0.2260   -2.3701 H       1  UNL1        0.0506
     39 H          -1.6314   -1.4474   -2.8667 H       1  UNL1        0.1490
     40 H          -3.3810    0.3386   -1.6783 H       1  UNL1        0.0361
     41 H          -3.5368   -1.2472   -0.8925 H       1  UNL1        0.0361
     42 H          -3.0135   -0.0723    1.3500 H       1  UNL1        0.0318
     43 H          -2.9540    1.4584    0.4605 H       1  UNL1        0.0318
     44 H          -5.2093   -1.2975    1.5460 H       1  UNL1        0.0620
     45 H          -7.6482   -1.0170    1.6434 H       1  UNL1        0.0618
     46 H          -8.6646    1.0158    0.6600 H       1  UNL1        0.0618
     47 H          -7.2799    2.6980   -0.3794 H       1  UNL1        0.0618
     48 H          -4.9041    2.4622   -0.4943 H       1  UNL1        0.0620
@<TRIPOS>BOND
     1     1     2    1
     2     2     3    1
     3     2     4    2
     4     4     5    1
     5     5     6    1
     6     6     7    1
     7     7     8    1
     8     7     9    2
     9     9    10    1
    10    10    11    1
    11    11    12   am
    12    12    13    2
    13    12    14    1
    14    14    15    1
    15    15    16    1
    16    16    17   ar
    17    17    18   ar
    18    18    19   ar
    19    19    20   ar
    20    20    21   ar
    21    21    16   ar
    22     1    22    1
    23     1    23    1
    24     1    24    1
    25     3    25    1
    26     3    26    1
    27     3    27    1
    28     4    28    1
    29     5    29    1
    30     5    30    1
    31     6    31    1
    32     6    32    1
    33     8    33    1
    34     8    34    1
    35     8    35    1
    36     9    36    1
    37    10    37    1
    38    10    38    1
    39    11    39    1
    40    14    40    1
    41    14    41    1
    42    15    42    1
    43    15    43    1
    44    17    44    1
    45    18    45    1
    46    19    46    1
    47    20    47    1
    48    21    48    1
@<TRIPOS>MOLECULE
51324102
 78 83 0 0 0
SMALL
GASTEIGER

@<TRIPOS>ATOM
      1 C           7.2167   -0.4714    3.7718 C.3     1  UNL1        0.0790
      2 O           7.1916   -0.6519    2.3721 O.3     1  UNL1       -0.4914
      3 C           6.0104   -0.7119    1.6665 C.ar    1  UNL1        0.1618
      4 C           4.7887   -0.5960    2.3118 C.ar    1  UNL1       -0.0127
      5 C           3.6092   -0.6535    1.6252 C.ar    1  UNL1       -0.0369
      6 C           3.5474   -0.8269    0.2670 C.ar    1  UNL1       -0.0157
      7 C           4.7881   -0.9432   -0.3728 C.ar    1  UNL1       -0.0108
      8 C           5.9863   -0.8880    0.3019 C.ar    1  UNL1        0.1618
      9 O           7.2106   -1.0043   -0.3419 O.3     1  UNL1       -0.4914
     10 C           7.1983   -1.1856   -1.7453 C.3     1  UNL1        0.0790
     11 C           2.3033   -0.8741   -0.5321 C.3     1  UNL1        0.0783
     12 C           2.2926    0.3003   -1.4805 C.ar    1  UNL1       -0.0225
     13 C           2.2304    1.5602   -0.9508 C.ar    1  UNL1       -0.0554
     14 C           2.2185    2.6694   -1.7907 C.ar    1  UNL1       -0.0474
     15 C           2.2689    2.5055   -3.1496 C.ar    1  UNL1        0.0179
     16 BR          2.2482    4.0874   -4.2357 Br      1  UNL1       -0.0503
     17 C           2.3315    1.2515   -3.7005 C.ar    1  UNL1       -0.0474
     18 C           2.3425    0.1527   -2.8444 C.ar    1  UNL1       -0.0554
     19 N           1.1476   -0.7765    0.3943 N.am    1  UNL1       -0.2741
     20 C           0.0091   -0.1601   -0.0915 C.2     1  UNL1        0.3063
     21 O           0.0136    0.1545   -1.3597 O.2     1  UNL1       -0.2524
     22 N          -1.1828    0.1939    0.5721 N.am    1  UNL1       -0.2741
     23 C          -1.3523    0.0504    1.9818 C.3     1  UNL1        0.0210
     24 C          -2.4395    0.9806    2.5559 C.3     1  UNL1       -0.0113
     25 C          -3.6841    0.7587    1.7621 C.ar    1  UNL1       -0.0369
     26 C          -4.8758    0.6915    2.4117 C.ar    1  UNL1       -0.0127
     27 C          -6.0686    0.4569    1.7195 C.ar    1  UNL1        0.1618
     28 O          -7.2858    0.3882    2.3815 O.3     1  UNL1       -0.4914
     29 C          -7.2981    0.5617    3.7853 C.3     1  UNL1        0.0790
     30 C          -5.9587    0.3004    0.3550 C.ar    1  UNL1        0.1618
     31 O          -7.0987    0.0627   -0.4105 O.3     1  UNL1       -0.4914
     32 C          -7.0711   -0.1068   -1.7973 C.3     1  UNL1        0.0790
     33 C          -4.7466    0.3705   -0.2949 C.ar    1  UNL1       -0.0108
     34 C          -3.5646    0.6040    0.3944 C.ar    1  UNL1       -0.0157
     35 C          -2.2663    0.7142   -0.2339 C.3     1  UNL1        0.0783
     36 C          -2.2594    0.0986   -1.5995 C.ar    1  UNL1       -0.0225
     37 C          -2.3137    0.8883   -2.7253 C.ar    1  UNL1       -0.0554
     38 C          -2.3304    0.3715   -4.0112 C.ar    1  UNL1       -0.0474
     39 C          -2.2913   -0.9967   -4.1873 C.ar    1  UNL1        0.0179
     40 BR         -2.3122   -1.7663   -5.9491 Br      1  UNL1       -0.0503
     41 C          -2.2368   -1.7911   -3.0608 C.ar    1  UNL1       -0.0474
     42 C          -2.2204   -1.2722   -1.7823 C.ar    1  UNL1       -0.0554
     43 C           1.3573   -1.4179    1.6604 C.3     1  UNL1        0.0210
     44 C           2.3399   -0.5411    2.4350 C.3     1  UNL1       -0.0113
     45 H           6.6181   -1.2708    4.2196 H       1  UNL1        0.0660
     46 H           8.2375   -0.4363    4.1686 H       1  UNL1        0.0660
     47 H           6.6652    0.4860    3.9892 H       1  UNL1        0.0660
     48 H           4.8335   -0.4571    3.3931 H       1  UNL1        0.0658
     49 H           4.7580   -1.0808   -1.4416 H       1  UNL1        0.0659
     50 H           6.4775   -2.0005   -2.0430 H       1  UNL1        0.0660
     51 H           8.1878   -1.5413   -2.1090 H       1  UNL1        0.0660
     52 H           6.8633   -0.2814   -2.2920 H       1  UNL1        0.0660
     53 H           2.1914   -1.7903   -1.1394 H       1  UNL1        0.0601
     54 H           2.1900    1.7336    0.0963 H       1  UNL1        0.0621
     55 H           2.1691    3.6568   -1.3532 H       1  UNL1        0.0629
     56 H           2.3708    1.1373   -4.7751 H       1  UNL1        0.0629
     57 H           2.3921   -0.8186   -3.3040 H       1  UNL1        0.0621
     58 H          -1.6328   -0.9672    2.2627 H       1  UNL1        0.0468
     59 H          -0.4086    0.3250    2.5370 H       1  UNL1        0.0468
     60 H          -2.0638    2.0047    2.4304 H       1  UNL1        0.0328
     61 H          -2.6113    0.7843    3.6168 H       1  UNL1        0.0328
     62 H          -4.9413    0.8187    3.4964 H       1  UNL1        0.0658
     63 H          -8.3307    0.2630    4.1217 H       1  UNL1        0.0660
     64 H          -7.0840    1.6122    3.9954 H       1  UNL1        0.0660
     65 H          -6.5671   -0.1140    4.3003 H       1  UNL1        0.0660
     66 H          -6.2299   -0.7682   -2.1357 H       1  UNL1        0.0660
     67 H          -6.9317    0.8928   -2.2796 H       1  UNL1        0.0660
     68 H          -8.0415   -0.5023   -2.1436 H       1  UNL1        0.0660
     69 H          -4.6358    0.2500   -1.3722 H       1  UNL1        0.0659
     70 H          -2.0366    1.7990   -0.3682 H       1  UNL1        0.0601
     71 H          -2.3454    1.9818   -2.5971 H       1  UNL1        0.0621
     72 H          -2.3735    1.0311   -4.8620 H       1  UNL1        0.0629
     73 H          -2.2069   -2.8645   -3.2295 H       1  UNL1        0.0629
     74 H          -2.1774   -1.9046   -0.9035 H       1  UNL1        0.0621
     75 H           0.5194   -1.6563    2.2812 H       1  UNL1        0.0468
     76 H           1.8973   -2.4242    1.4642 H       1  UNL1        0.0468
     77 H           2.4901   -0.9227    3.4508 H       1  UNL1        0.0328
     78 H           1.9641    0.4831    2.4471 H       1  UNL1        0.0328
@<TRIPOS>BOND
     1     1     2    1
     2     2     3    1
     3     3     4   ar
     4     4     5   ar
     5     5     6   ar
     6     6     7   ar
     7     7     8   ar
     8     8     9    1
     9     9    10    1
    10     6    11    1
    11    11    12    1
    12    12    13   ar
    13    13    14   ar
    14    14    15   ar
    15    15    16    1
    16    15    17   ar
    17    17    18   ar
    18    11    19    1
    19    19    20   am
    20    20    21    2
    21    20    22   am
    22    22    23    1
    23    23    24    1
    24    24    25    1
    25    25    26   ar
    26    26    27   ar
    27    27    28    1
    28    28    29    1
    29    27    30   ar
    30    30    31    1
    31    31    32    1
    32    30    33   ar
    33    33    34   ar
    34    34    35    1
    35    35    36    1
    36    36    37   ar
    37    37    38   ar
    38    38    39   ar
    39    39    40    1
    40    39    41   ar
    41    41    42   ar
    42    19    43    1
    43    43    44    1
    44     8     3   ar
    45    18    12   ar
    46    35    22    1
    47    42    36   ar
    48    44     5    1
    49    34    25   ar
    50     1    45    1
    51     1    46    1
    52     1    47    1
    53     4    48    1
    54     7    49    1
    55    10    50    1
    56    10    51    1
    57    10    52    1
    58    11    53    1
    59    13    54    1
    60    14    55    1
    61    17    56    1
    62    18    57    1
    63    23    58    1
    64    23    59    1
    65    24    60    1
    66    24    61    1
    67    26    62    1
    68    29    63    1
    69    29    64    1
    70    29    65    1
    71    32    66    1
    72    32    67    1
    73    32    68    1
    74    33    69    1
    75    35    70    1
    76    37    71    1
    77    38    72    1
    78    41    73    1
    79    42    74    1
    80    43    75    1
    81    43    76    1
    82    44    77    1
    83    44    78    1
@<TRIPOS>MOLECULE
51135388
 65 69 0 0 0
SMALL
GASTEIGER

@<TRIPOS>ATOM
      1 O           6.8597    0.1495    4.7649 O.2     1  UNL1        0.0414
      2 N           6.1175    0.8801    4.1120 N.pl3   1  UNL1        0.0798
      3 O           5.9316    2.1945    4.5349 O.co2   1  UNL1       -0.5760
      4 C           5.4354    0.4513    2.9439 C.ar    1  UNL1        0.2797
      5 C           5.6373   -0.8458    2.5309 C.ar    1  UNL1        0.0171
      6 C           5.0196   -1.3051    1.4323 C.ar    1  UNL1       -0.0350
      7 C           4.1268   -0.5270    0.6142 C.ar    1  UNL1        0.0915
      8 S           3.4799   -1.3471   -0.7046 S.3     1  UNL1       -0.0648
      9 C           2.2698   -0.8161   -1.7864 C.ar    1  UNL1        0.0826
     10 N           2.3625   -0.1147   -2.9596 N.ar    1  UNL1       -0.3489
     11 C           1.1967    0.0218   -3.5587 C.ar    1  UNL1        0.0475
     12 C           0.7740    0.6366   -4.7475 C.ar    1  UNL1       -0.0378
     13 C          -0.5449    0.6172   -5.1308 C.ar    1  UNL1       -0.0598
     14 C          -1.4984   -0.0063   -4.3620 C.ar    1  UNL1       -0.0611
     15 C          -1.1000   -0.6069   -3.2052 C.ar    1  UNL1       -0.0523
     16 C           0.2208   -0.5923   -2.8126 C.ar    1  UNL1        0.0040
     17 C           0.8788   -1.1191   -1.7031 C.ar    1  UNL1       -0.0069
     18 C           0.2851   -1.9228   -0.6498 C.3     1  UNL1       -0.0118
     19 C           0.0511   -1.3091    0.6636 C.3     1  UNL1        0.0036
     20 N          -0.8529   -0.2534    0.7214 N.3     1  UNL1       -0.2937
     21 C          -0.5426    1.0247    0.2428 C.3     1  UNL1        0.0244
     22 C          -1.6419    1.9925    0.2289 C.ar    1  UNL1       -0.0334
     23 C          -1.8669    2.8175    1.2951 C.ar    1  UNL1       -0.0573
     24 C          -2.8991    3.7258    1.2777 C.ar    1  UNL1       -0.0615
     25 C          -3.7317    3.8350    0.1990 C.ar    1  UNL1       -0.0617
     26 C          -3.5253    3.0157   -0.8859 C.ar    1  UNL1       -0.0615
     27 C          -2.4711    2.0937   -0.8580 C.ar    1  UNL1       -0.0573
     28 C          -1.9967   -0.3684    1.5557 C.3     1  UNL1        0.0244
     29 C          -2.8744   -1.5181    1.2808 C.ar    1  UNL1       -0.0334
     30 C          -3.8368   -1.4566    0.2806 C.ar    1  UNL1       -0.0573
     31 C          -4.6721   -2.5389    0.0446 C.ar    1  UNL1       -0.0615
     32 C          -4.5391   -3.6834    0.8153 C.ar    1  UNL1       -0.0617
     33 C          -3.5976   -3.7609    1.8038 C.ar    1  UNL1       -0.0615
     34 C          -2.7711   -2.6604    2.0213 C.ar    1  UNL1       -0.0573
     35 C           3.9536    0.7378    1.0469 C.ar    1  UNL1        0.2932
     36 N           3.1417    1.6755    0.3957 N.pl3   1  UNL1        0.0810
     37 O           2.6031    2.5988    1.0846 O.2     1  UNL1        0.0415
     38 O           2.8900    1.6918   -0.9077 O.co2   1  UNL1       -0.5760
     39 C           4.6054    1.2366    2.2148 C.ar    1  UNL1        0.0937
     40 H           6.3117   -1.4955    3.1159 H       1  UNL1        0.0686
     41 H           5.2088   -2.3341    1.1441 H       1  UNL1        0.0633
     42 H           3.2781    0.2528   -3.3023 H       1  UNL1        0.1664
     43 H           1.5004    1.1274   -5.3595 H       1  UNL1        0.0638
     44 H          -0.8755    1.0925   -6.0502 H       1  UNL1        0.0618
     45 H          -2.5411    0.0002   -4.7026 H       1  UNL1        0.0618
     46 H          -1.8183   -1.1007   -2.5847 H       1  UNL1        0.0624
     47 H           0.8735   -2.8998   -0.5162 H       1  UNL1        0.0327
     48 H          -0.6901   -2.3360   -1.0915 H       1  UNL1        0.0327
     49 H          -0.2959   -2.0909    1.4230 H       1  UNL1        0.0430
     50 H           1.0400   -0.9510    1.1294 H       1  UNL1        0.0430
     51 H           0.2183    1.4426    1.0178 H       1  UNL1        0.0476
     52 H           0.0576    1.0075   -0.6673 H       1  UNL1        0.0476
     53 H          -1.1870    2.7169    2.1564 H       1  UNL1        0.0621
     54 H          -3.0712    4.3793    2.1312 H       1  UNL1        0.0618
     55 H          -4.5623    4.5542    0.1654 H       1  UNL1        0.0618
     56 H          -4.1787    3.1055   -1.7263 H       1  UNL1        0.0618
     57 H          -2.3807    1.4925   -1.7463 H       1  UNL1        0.0621
     58 H          -2.6321    0.5365    1.5851 H       1  UNL1        0.0476
     59 H          -1.6093   -0.4763    2.6146 H       1  UNL1        0.0476
     60 H          -3.8942   -0.5372   -0.2872 H       1  UNL1        0.0621
     61 H          -5.4198   -2.4884   -0.7339 H       1  UNL1        0.0618
     62 H          -5.1656   -4.5587    0.6728 H       1  UNL1        0.0618
     63 H          -3.4427   -4.6226    2.4389 H       1  UNL1        0.0618
     64 H          -2.0337   -2.7230    2.8178 H       1  UNL1        0.0621
     65 H           4.4321    2.2619    2.5222 H       1  UNL1        0.0754
@<TRIPOS>UNITY_ATOM_ATTR
2 1
charge 1
3 1
charge -1
36 1
charge 1
38 1
charge -1
@<TRIPOS>BOND
     1     1     2    2
     2     2     3    1
     3     2     4    1
     4     4     5   ar
     5     5     6   ar
     6     6     7   ar
     7     7     8    1
     8     8     9    1
     9     9    10   ar
    10    10    11   ar
    11    11    12   ar
    12    12    13   ar
    13    13    14   ar
    14    14    15   ar
    15    15    16   ar
    16    16    17   ar
    17    17    18    1
    18    18    19    1
    19    19    20    1
    20    20    21    1
    21    21    22    1
    22    22    23   ar
    23    23    24   ar
    24    24    25   ar
    25    25    26   ar
    26    26    27   ar
    27    20    28    1
    28    28    29    1
    29    29    30   ar
    30    30    31   ar
    31    31    32   ar
    32    32    33   ar
    33    33    34   ar
    34     7    35   ar
    35    35    36    1
    36    36    37    2
    37    36    38    1
    38    35    39   ar
    39    39     4   ar
    40    17     9   ar
    41    27    22   ar
    42    34    29   ar
    43    16    11   ar
    44     5    40    1
    45     6    41    1
    46    10    42    1
    47    12    43    1
    48    13    44    1
    49    14    45    1
    50    15    46    1
    51    18    47    1
    52    18    48    1
    53    19    49    1
    54    19    50    1
    55    21    51    1
    56    21    52    1
    57    23    53    1
    58    24    54    1
    59    25    55    1
    60    26    56    1
    61    27    57    1
    62    28    58    1
    63    28    59    1
    64    30    60    1
    65    31    61    1
    66    32    62    1
    67    33    63    1
    68    34    64    1
    69    39    65    1
@<TRIPOS>MOLECULE
51467439
 50 54 0 0 0
SMALL
GASTEIGER

@<TRIPOS>ATOM
      1 O           2.2245    2.6059   -1.5632 O.2     1  UNL1       -0.2731
      2 C           1.5840    1.5699   -1.2571 C.2     1  UNL1        0.2442
      3 C           0.2784    1.4717   -0.6133 C.3     1  UNL1        0.1091
      4 C          -0.7450    2.4754   -1.1657 C.3     1  UNL1        0.0001
      5 C          -1.9742    2.1892   -0.3331 C.ar    1  UNL1       -0.0362
      6 C          -2.6490    3.2351    0.2601 C.ar    1  UNL1       -0.0130
      7 C          -3.7766    3.0064    1.0340 C.ar    1  UNL1        0.1585
      8 O          -4.4775    4.0380    1.6441 O.3     1  UNL1       -0.5033
      9 C          -4.1628    1.6882    1.1628 C.ar    1  UNL1        0.1586
     10 O          -5.2996    1.4032    1.9371 O.3     1  UNL1       -0.5033
     11 C          -3.5119    0.6376    0.5860 C.ar    1  UNL1       -0.0110
     12 C          -2.3930    0.8837   -0.1800 C.ar    1  UNL1       -0.0156
     13 C          -1.6200   -0.1803   -0.8512 C.3     1  UNL1        0.0791
     14 C          -1.8697   -1.5129   -0.2816 C.ar    1  UNL1       -0.0224
     15 C          -1.1930   -1.9133    0.8482 C.ar    1  UNL1       -0.0538
     16 C          -1.4120   -3.1763    1.4121 C.ar    1  UNL1       -0.0261
     17 C          -2.3174   -4.0256    0.8251 C.ar    1  UNL1        0.1234
     18 F          -2.5518   -5.2723    1.3585 F       1  UNL1       -0.2055
     19 C          -2.9893   -3.6143   -0.3060 C.ar    1  UNL1       -0.0261
     20 C          -2.7741   -2.3673   -0.8641 C.ar    1  UNL1       -0.0538
     21 N          -0.2295    0.1538   -0.9236 N.am    1  UNL1       -0.2622
     22 C           0.9142   -0.6437   -1.2868 C.2     1  UNL1        0.3128
     23 O           0.9303   -1.8843   -1.4031 O.2     1  UNL1       -0.2519
     24 N           2.0355    0.2295   -1.4933 N.am    1  UNL1       -0.2199
     25 C           3.3892   -0.1298   -1.8704 C.3     1  UNL1        0.0489
     26 C           4.1754   -0.3694   -0.6336 C.ar    1  UNL1       -0.0294
     27 C           4.8439    0.6855   -0.0534 C.ar    1  UNL1       -0.0543
     28 C           5.5626    0.4324    1.0899 C.ar    1  UNL1       -0.0261
     29 C           5.6182   -0.8233    1.6412 C.ar    1  UNL1        0.1234
     30 F           6.3366   -1.0368    2.7692 F       1  UNL1       -0.2055
     31 C           4.9354   -1.8751    1.0390 C.ar    1  UNL1       -0.0261
     32 C           4.2064   -1.6357   -0.1142 C.ar    1  UNL1       -0.0543
     33 H           0.3219    1.5401    0.4965 H       1  UNL1        0.0601
     34 H          -0.3831    3.4967   -0.9699 H       1  UNL1        0.0336
     35 H          -0.9016    2.2365   -2.2173 H       1  UNL1        0.0336
     36 H          -2.3102    4.2578    0.1325 H       1  UNL1        0.0658
     37 H          -4.1492    4.9768    1.5463 H       1  UNL1        0.2923
     38 H          -6.1693    1.8208    1.6585 H       1  UNL1        0.2923
     39 H          -3.8153   -0.3994    0.6870 H       1  UNL1        0.0659
     40 H          -2.0142   -0.1937   -1.9146 H       1  UNL1        0.0602
     41 H          -0.4732   -1.2768    1.3408 H       1  UNL1        0.0622
     42 H          -0.8837   -3.5020    2.3029 H       1  UNL1        0.0646
     43 H          -3.7049   -4.3197   -0.7472 H       1  UNL1        0.0646
     44 H          -3.3377   -2.0992   -1.7614 H       1  UNL1        0.0622
     45 H           3.8795    0.6849   -2.4390 H       1  UNL1        0.0519
     46 H           3.3250   -1.0686   -2.4639 H       1  UNL1        0.0519
     47 H           4.7729    1.6585   -0.5213 H       1  UNL1        0.0622
     48 H           6.0996    1.2382    1.5716 H       1  UNL1        0.0646
     49 H           4.9871   -2.8562    1.4816 H       1  UNL1        0.0646
     50 H           3.6683   -2.4398   -0.5981 H       1  UNL1        0.0622
@<TRIPOS>BOND
     1     1     2    2
     2     2     3    1
     3     3     4    1
     4     4     5    1
     5     5     6   ar
     6     6     7   ar
     7     7     8    1
     8     7     9   ar
     9     9    10    1
    10     9    11   ar
    11    11    12   ar
    12    12    13    1
    13    13    14    1
    14    14    15   ar
    15    15    16   ar
    16    16    17   ar
    17    17    18    1
    18    17    19   ar
    19    19    20   ar
    20    13    21    1
    21    21    22   am
    22    22    23    2
    23    22    24   am
    24    24    25    1
    25    25    26    1
    26    26    27   ar
    27    27    28   ar
    28    28    29   ar
    29    29    30    1
    30    29    31   ar
    31    31    32   ar
    32    24     2   am
    33    32    26   ar
    34    21     3    1
    35    12     5   ar
    36    20    14   ar
    37     3    33    1
    38     4    34    1
    39     4    35    1
    40     6    36    1
    41     8    37    1
    42    10    38    1
    43    11    39    1
    44    13    40    1
    45    15    41    1
    46    16    42    1
    47    19    43    1
    48    20    44    1
    49    25    45    1
    50    25    46    1
    51    27    47    1
    52    28    48    1
    53    31    49    1
    54    32    50    1
@<TRIPOS>MOLECULE
50934296
 42 45 0 0 0
SMALL
GASTEIGER

@<TRIPOS>ATOM
      1 O           1.8799   -0.9478   -1.8082 O.2     1  UNL1       -0.2523
      2 C           1.1551   -0.2905   -1.0307 C.2     1  UNL1        0.3072
      3 N           1.5849    0.0138    0.2511 N.am    1  UNL1       -0.2693
      4 C           2.8295   -0.3731    0.7910 C.ar    1  UNL1        0.0348
      5 C           3.1123    0.0180    2.1138 C.ar    1  UNL1       -0.0404
      6 C           4.2801   -0.2871    2.7654 C.ar    1  UNL1       -0.0600
      7 C           5.2621   -1.0116    2.1410 C.ar    1  UNL1       -0.0616
      8 C           5.0061   -1.4026    0.8509 C.ar    1  UNL1       -0.0600
      9 C           3.8093   -1.0902    0.1826 C.ar    1  UNL1       -0.0404
     10 N          -0.1407    0.1287   -1.5430 N.am    1  UNL1       -0.2739
     11 C          -0.3695   -0.2692   -2.9154 C.3     1  UNL1        0.0215
     12 C          -0.8192    1.0578   -3.5774 C.3     1  UNL1       -0.0052
     13 C          -2.1852    1.2333   -2.8921 C.ar    1  UNL1       -0.0035
     14 S          -3.7605    1.5543   -3.5482 S.2     1  UNL1       -0.1012
     15 C          -4.6079    1.5287   -1.9476 C.ar    1  UNL1       -0.0237
     16 C          -3.5973    1.2761   -1.0579 C.ar    1  UNL1       -0.0492
     17 C          -2.3371    1.1236   -1.5605 C.ar    1  UNL1       -0.0122
     18 C          -1.0640    0.8488   -0.7571 C.3     1  UNL1        0.0813
     19 C          -1.4661    0.1670    0.4976 C.ar    1  UNL1        0.0126
     20 C          -1.7819    0.9494    1.5917 C.ar    1  UNL1       -0.0537
     21 C          -2.1845    0.3741    2.7790 C.ar    1  UNL1       -0.0613
     22 C          -2.2858   -0.9921    2.9170 C.ar    1  UNL1       -0.0590
     23 C          -1.9667   -1.7520    1.8155 C.ar    1  UNL1       -0.0261
     24 C          -1.5611   -1.1843    0.6175 C.ar    1  UNL1        0.1287
     25 F          -1.2574   -1.9915   -0.4399 F       1  UNL1       -0.2051
     26 H           0.9210    0.5894    0.8641 H       1  UNL1        0.1564
     27 H           2.3286    0.5991    2.6198 H       1  UNL1        0.0636
     28 H           4.4321    0.0495    3.7929 H       1  UNL1        0.0618
     29 H           6.1955   -1.2789    2.6029 H       1  UNL1        0.0618
     30 H           5.7624   -1.9829    0.3140 H       1  UNL1        0.0618
     31 H           3.6736   -1.4280   -0.8282 H       1  UNL1        0.0636
     32 H           0.5146   -0.6660   -3.4306 H       1  UNL1        0.0469
     33 H          -1.2328   -0.9479   -2.9239 H       1  UNL1        0.0469
     34 H          -1.0015    0.9326   -4.6436 H       1  UNL1        0.0334
     35 H          -0.1554    1.8804   -3.3218 H       1  UNL1        0.0334
     36 H          -5.6865    1.6862   -1.8031 H       1  UNL1        0.0693
     37 H          -3.8515    1.2075    0.0478 H       1  UNL1        0.0626
     38 H          -0.6378    1.8308   -0.4767 H       1  UNL1        0.0603
     39 H          -1.7253    2.0435    1.5582 H       1  UNL1        0.0622
     40 H          -2.4263    1.0204    3.6233 H       1  UNL1        0.0618
     41 H          -2.6054   -1.4010    3.8661 H       1  UNL1        0.0618
     42 H          -2.0393   -2.8161    1.9030 H       1  UNL1        0.0646
@<TRIPOS>BOND
     1     1     2    2
     2     2     3   am
     3     3     4    1
     4     4     5   ar
     5     5     6   ar
     6     6     7   ar
     7     7     8   ar
     8     8     9   ar
     9     2    10   am
    10    10    11    1
    11    11    12    1
    12    12    13    1
    13    13    14   ar
    14    14    15   ar
    15    15    16   ar
    16    16    17   ar
    17    17    18    1
    18    18    19    1
    19    19    20   ar
    20    20    21   ar
    21    21    22   ar
    22    22    23   ar
    23    23    24   ar
    24    24    25    1
    25     9     4   ar
    26    18    10    1
    27    24    19   ar
    28    17    13   ar
    29     3    26    1
    30     5    27    1
    31     6    28    1
    32     7    29    1
    33     8    30    1
    34     9    31    1
    35    11    32    1
    36    11    33    1
    37    12    34    1
    38    12    35    1
    39    15    36    1
    40    16    37    1
    41    18    38    1
    42    20    39    1
    43    21    40    1
    44    22    41    1
    45    23    42    1
@<TRIPOS>MOLECULE
50162231
 55 57 0 0 0
SMALL
GASTEIGER

@<TRIPOS>ATOM
      1 C          -4.7241   -1.1014   -1.2312 C.3     1  UNL1       -0.0624
      2 C          -3.3185   -0.7230   -0.6928 C.3     1  UNL1       -0.0422
      3 C          -2.6809   -2.0802   -0.4219 C.3     1  UNL1       -0.0624
      4 C          -3.6173    0.0514    0.5735 C.3     1  UNL1       -0.0201
      5 C          -4.4782    1.2200    0.1033 C.3     1  UNL1       -0.0481
      6 C          -4.4683    2.4010    0.9887 C.3     1  UNL1       -0.0501
      7 C          -3.9460    2.1469    2.3757 C.3     1  UNL1       -0.0422
      8 C          -4.9913    1.4905    3.2514 C.3     1  UNL1       -0.0624
      9 C          -2.6351    1.4452    2.4018 C.3     1  UNL1       -0.0315
     10 C          -2.3678    0.5952    1.1695 C.3     1  UNL1        0.0295
     11 N          -1.3671   -0.4037    1.4481 N.am    1  UNL1       -0.2777
     12 C          -0.0564   -0.3006    0.8833 C.2     1  UNL1        0.4058
     13 O           0.1875    0.6807    0.1441 O.2     1  UNL1       -0.2260
     14 O           0.9578   -1.2105    1.0983 O.3     1  UNL1       -0.4115
     15 C           2.1762   -0.9931    0.4930 C.ar    1  UNL1        0.1333
     16 C           2.3983   -1.5393   -0.7518 C.ar    1  UNL1       -0.0186
     17 C           3.5925   -1.3679   -1.4270 C.ar    1  UNL1       -0.0506
     18 C           4.5947   -0.6360   -0.8551 C.ar    1  UNL1       -0.0177
     19 C           5.8613   -0.4575   -1.5814 C.ar    1  UNL1       -0.0179
     20 C           5.8440   -0.4078   -2.9595 C.ar    1  UNL1       -0.0540
     21 C           6.9955   -0.2419   -3.6994 C.ar    1  UNL1       -0.0612
     22 C           8.2035   -0.1211   -3.0541 C.ar    1  UNL1       -0.0617
     23 C           8.2458   -0.1674   -1.6853 C.ar    1  UNL1       -0.0612
     24 C           7.0760   -0.3349   -0.9627 C.ar    1  UNL1       -0.0540
     25 C           4.4030   -0.0814    0.3808 C.ar    1  UNL1       -0.0506
     26 C           3.1912   -0.2591    1.0587 C.ar    1  UNL1       -0.0186
     27 H          -5.1659   -0.2622   -1.7721 H       1  UNL1        0.0232
     28 H          -5.2938   -1.4745   -0.3798 H       1  UNL1        0.0232
     29 H          -4.5349   -1.9078   -1.9657 H       1  UNL1        0.0232
     30 H          -2.7805   -0.1215   -1.4282 H       1  UNL1        0.0299
     31 H          -2.9006   -2.4536    0.5751 H       1  UNL1        0.0232
     32 H          -3.1224   -2.8661   -1.1178 H       1  UNL1        0.0232
     33 H          -1.6310   -2.0298   -0.7238 H       1  UNL1        0.0232
     34 H          -4.1745   -0.6313    1.2370 H       1  UNL1        0.0321
     35 H          -4.1119    1.5289   -0.8964 H       1  UNL1        0.0269
     36 H          -5.4988    0.7864   -0.0571 H       1  UNL1        0.0269
     37 H          -3.8716    3.2614    0.5688 H       1  UNL1        0.0268
     38 H          -5.5056    2.7903    1.0939 H       1  UNL1        0.0268
     39 H          -3.7811    3.1686    2.8325 H       1  UNL1        0.0299
     40 H          -5.3300    2.1164    4.0766 H       1  UNL1        0.0232
     41 H          -4.6501    0.5245    3.6681 H       1  UNL1        0.0232
     42 H          -5.8613    1.2520    2.5942 H       1  UNL1        0.0232
     43 H          -1.7861    2.1769    2.4815 H       1  UNL1        0.0286
     44 H          -2.5790    0.8443    3.3359 H       1  UNL1        0.0286
     45 H          -1.9235    1.3051    0.4098 H       1  UNL1        0.0502
     46 H          -1.5398   -1.2335    2.0687 H       1  UNL1        0.1523
     47 H           1.6195   -2.1145   -1.2084 H       1  UNL1        0.0654
     48 H           3.7652   -1.7970   -2.4032 H       1  UNL1        0.0625
     49 H           4.9018   -0.5008   -3.4947 H       1  UNL1        0.0624
     50 H           6.9963   -0.2012   -4.7787 H       1  UNL1        0.0618
     51 H           9.1419    0.0109   -3.5689 H       1  UNL1        0.0618
     52 H           9.2052   -0.0715   -1.1642 H       1  UNL1        0.0618
     53 H           7.0975   -0.3730    0.1193 H       1  UNL1        0.0624
     54 H           5.2090    0.4996    0.8266 H       1  UNL1        0.0625
     55 H           3.0300    0.1688    2.0234 H       1  UNL1        0.0654
@<TRIPOS>BOND
     1     1     2    1
     2     2     3    1
     3     2     4    1
     4     4     5    1
     5     5     6    1
     6     6     7    1
     7     7     8    1
     8     7     9    1
     9     9    10    1
    10    10    11    1
    11    11    12   am
    12    12    13    2
    13    12    14    1
    14    14    15    1
    15    15    16   ar
    16    16    17   ar
    17    17    18   ar
    18    18    19    1
    19    19    20   ar
    20    20    21   ar
    21    21    22   ar
    22    22    23   ar
    23    23    24   ar
    24    18    25   ar
    25    25    26   ar
    26    10     4    1
    27    26    15   ar
    28    24    19   ar
    29     1    27    1
    30     1    28    1
    31     1    29    1
    32     2    30    1
    33     3    31    1
    34     3    32    1
    35     3    33    1
    36     4    34    1
    37     5    35    1
    38     5    36    1
    39     6    37    1
    40     6    38    1
    41     7    39    1
    42     8    40    1
    43     8    41    1
    44     8    42    1
    45     9    43    1
    46     9    44    1
    47    10    45    1
    48    11    46    1
    49    16    47    1
    50    17    48    1
    51    20    49    1
    52    21    50    1
    53    22    51    1
    54    23    52    1
    55    24    53    1
    56    25    54    1
    57    26    55    1
@<TRIPOS>MOLECULE
51345618
 55 60 0 0 0
SMALL
GASTEIGER

@<TRIPOS>ATOM
      1 C           6.8390   -0.1400   -1.9307 C.3     1  UNL1       -0.0397
      2 C           5.8395   -0.1558   -0.8419 C.ar    1  UNL1       -0.0504
      3 C           5.2848    1.0416   -0.4397 C.ar    1  UNL1       -0.0585
      4 C           4.3400    1.0245    0.5898 C.ar    1  UNL1       -0.0568
      5 C           3.9772   -0.1594    1.1822 C.ar    1  UNL1       -0.0295
      6 C           2.9868   -0.1576    2.2581 C.3     1  UNL1        0.0489
      7 N           1.6296   -0.3077    1.7712 N.am    1  UNL1       -0.2199
      8 C           0.8876   -1.5049    1.5598 C.2     1  UNL1        0.2442
      9 O           1.2292   -2.6281    1.9895 O.2     1  UNL1       -0.2731
     10 C          -0.3085   -1.1263    0.7608 C.3     1  UNL1        0.1093
     11 C          -1.5145   -1.8283    1.3640 C.3     1  UNL1        0.0020
     12 C          -2.7208   -1.2756    0.7243 C.ar    1  UNL1       -0.0147
     13 C          -2.7938    0.0743    0.4511 C.ar    1  UNL1        0.0456
     14 N          -3.9896    0.2675   -0.1201 N.ar    1  UNL1       -0.3560
     15 C          -4.6694   -0.8864   -0.2198 C.ar    1  UNL1        0.0470
     16 C          -5.9196   -1.1942   -0.7261 C.ar    1  UNL1       -0.0378
     17 C          -6.3673   -2.5016   -0.6942 C.ar    1  UNL1       -0.0598
     18 C          -5.5778   -3.4982   -0.1623 C.ar    1  UNL1       -0.0611
     19 C          -4.3473   -3.2060    0.3380 C.ar    1  UNL1       -0.0523
     20 C          -3.8805   -1.9003    0.3149 C.ar    1  UNL1        0.0032
     21 C          -1.6838    1.0239    0.7805 C.3     1  UNL1        0.0938
     22 C          -1.5376    2.0381   -0.2783 C.ar    1  UNL1       -0.0211
     23 C          -2.0276    3.2987   -0.0968 C.ar    1  UNL1       -0.0551
     24 C          -1.8895    4.2476   -1.0907 C.ar    1  UNL1       -0.0431
     25 C          -1.2533    3.9099   -2.2654 C.ar    1  UNL1        0.0410
     26 CL         -1.0745    5.1139   -3.5344 Cl      1  UNL1       -0.0835
     27 C          -0.7541    2.6343   -2.4564 C.ar    1  UNL1       -0.0431
     28 C          -0.9017    1.6918   -1.4461 C.ar    1  UNL1       -0.0551
     29 N          -0.4515    0.2984    0.9829 N.am    1  UNL1       -0.2608
     30 C           0.8107    0.7991    1.4182 C.2     1  UNL1        0.3128
     31 O           1.1342    2.0342    1.4752 O.2     1  UNL1       -0.2519
     32 C           4.5435   -1.3413    0.7648 C.ar    1  UNL1       -0.0568
     33 C           5.4868   -1.3520   -0.2584 C.ar    1  UNL1       -0.0585
     34 H           7.7958   -0.6133   -1.6034 H       1  UNL1        0.0278
     35 H           6.4620   -0.7447   -2.7926 H       1  UNL1        0.0278
     36 H           7.0578    0.8803   -2.2677 H       1  UNL1        0.0278
     37 H           5.5510    1.9770   -0.8855 H       1  UNL1        0.0620
     38 H           3.8954    1.9582    0.9166 H       1  UNL1        0.0621
     39 H           3.1912   -0.9989    2.9593 H       1  UNL1        0.0519
     40 H           3.0192    0.7608    2.8867 H       1  UNL1        0.0519
     41 H          -0.1570   -1.3888   -0.2885 H       1  UNL1        0.0601
     42 H          -1.4514   -2.9159    1.2027 H       1  UNL1        0.0337
     43 H          -1.5032   -1.6071    2.4627 H       1  UNL1        0.0337
     44 H          -4.3368    1.2171   -0.4451 H       1  UNL1        0.1657
     45 H          -6.5357   -0.3985   -1.1443 H       1  UNL1        0.0638
     46 H          -7.3446   -2.7447   -1.0895 H       1  UNL1        0.0618
     47 H          -5.9266   -4.5163   -0.1374 H       1  UNL1        0.0618
     48 H          -3.7267   -3.9872    0.7556 H       1  UNL1        0.0624
     49 H          -1.9502    1.5411    1.7479 H       1  UNL1        0.0616
     50 H          -2.5254    3.5638    0.8216 H       1  UNL1        0.0621
     51 H          -2.2673    5.2460   -0.9700 H       1  UNL1        0.0632
     52 H          -0.2553    2.3446   -3.3594 H       1  UNL1        0.0632
     53 H          -0.5156    0.6829   -1.5777 H       1  UNL1        0.0621
     54 H           4.2717   -2.2881    1.2187 H       1  UNL1        0.0621
     55 H           5.9253   -2.3026   -0.5756 H       1  UNL1        0.0620
@<TRIPOS>BOND
     1     1     2    1
     2     2     3   ar
     3     3     4   ar
     4     4     5   ar
     5     5     6    1
     6     6     7    1
     7     7     8   am
     8     8     9    2
     9     8    10    1
    10    10    11    1
    11    11    12    1
    12    12    13   ar
    13    13    14   ar
    14    14    15   ar
    15    15    16   ar
    16    16    17   ar
    17    17    18   ar
    18    18    19   ar
    19    19    20   ar
    20    13    21    1
    21    21    22    1
    22    22    23   ar
    23    23    24   ar
    24    24    25   ar
    25    25    26    1
    26    25    27   ar
    27    27    28   ar
    28    21    29    1
    29    29    30   am
    30    30    31    2
    31     5    32   ar
    32    32    33   ar
    33    33     2   ar
    34    30     7   am
    35    29    10    1
    36    20    12   ar
    37    28    22   ar
    38    20    15   ar
    39     1    34    1
    40     1    35    1
    41     1    36    1
    42     3    37    1
    43     4    38    1
    44     6    39    1
    45     6    40    1
    46    10    41    1
    47    11    42    1
    48    11    43    1
    49    14    44    1
    50    16    45    1
    51    17    46    1
    52    18    47    1
    53    19    48    1
    54    21    49    1
    55    23    50    1
    56    24    51    1
    57    27    52    1
    58    28    53    1
    59    32    54    1
    60    33    55    1
@<TRIPOS>MOLECULE
50934309
 49 52 0 0 0
SMALL
GASTEIGER

@<TRIPOS>ATOM
      1 C           7.7980    1.6375    1.2882 C.3     1  UNL1        0.0788
      2 O           7.3289    0.3537    0.9228 O.3     1  UNL1       -0.4951
      3 C           6.0068    0.2631    0.4786 C.ar    1  UNL1        0.1202
      4 C           5.1772    1.3618    0.3917 C.ar    1  UNL1       -0.0182
      5 C           3.8731    1.2777   -0.0456 C.ar    1  UNL1       -0.0370
      6 C           3.3420    0.0662   -0.4191 C.ar    1  UNL1        0.0350
      7 N           1.9891   -0.0592   -0.8791 N.am    1  UNL1       -0.2693
      8 C           0.9077   -0.3137    0.0143 C.2     1  UNL1        0.3072
      9 O           1.2506   -0.4180    1.2461 O.2     1  UNL1       -0.2523
     10 N          -0.4386   -0.4459   -0.3836 N.am    1  UNL1       -0.2740
     11 C          -0.8540   -0.3383   -1.7493 C.3     1  UNL1        0.0215
     12 C          -1.9958   -1.2904   -2.0308 C.3     1  UNL1       -0.0052
     13 C          -2.1663   -2.3102   -1.0168 C.ar    1  UNL1       -0.0035
     14 S          -2.6873   -3.9716   -1.1074 S.2     1  UNL1       -0.1012
     15 C          -2.5506   -4.3498    0.6896 C.ar    1  UNL1       -0.0237
     16 C          -2.1165   -3.1447    1.1554 C.ar    1  UNL1       -0.0492
     17 C          -1.9193   -2.1253    0.3388 C.ar    1  UNL1       -0.0123
     18 C          -1.4447   -0.6967    0.6155 C.3     1  UNL1        0.0787
     19 C          -2.6201    0.1997    0.4494 C.ar    1  UNL1       -0.0225
     20 C          -2.5042    1.5398    0.2129 C.ar    1  UNL1       -0.0559
     21 C          -3.6498    2.3291    0.0661 C.ar    1  UNL1       -0.0498
     22 C          -4.9027    1.7642    0.1583 C.ar    1  UNL1        0.0548
     23 C          -6.1333    2.6024    0.0022 C.3     1  UNL1        0.4174
     24 F          -7.1048    1.8748   -0.6561 F       1  UNL1       -0.1659
     25 F          -6.6558    2.9502    1.2386 F       1  UNL1       -0.1659
     26 F          -5.8122    3.7032   -0.7569 F       1  UNL1       -0.1659
     27 C          -5.0380    0.4143    0.3964 C.ar    1  UNL1       -0.0498
     28 C          -3.8962   -0.3278    0.5349 C.ar    1  UNL1       -0.0559
     29 C           4.1630   -1.0416   -0.3366 C.ar    1  UNL1       -0.0370
     30 C           5.4687   -0.9652    0.1000 C.ar    1  UNL1       -0.0182
     31 H           7.6674    2.2999    0.4194 H       1  UNL1        0.0660
     32 H           7.0833    2.0110    2.0706 H       1  UNL1        0.0660
     33 H           8.8267    1.6114    1.6759 H       1  UNL1        0.0660
     34 H           5.6028    2.3182    0.6887 H       1  UNL1        0.0655
     35 H           3.2872    2.1797   -0.0860 H       1  UNL1        0.0637
     36 H           1.8157    0.0432   -1.9000 H       1  UNL1        0.1564
     37 H          -0.0485   -0.4216   -2.4988 H       1  UNL1        0.0469
     38 H          -1.2526    0.7111   -1.8753 H       1  UNL1        0.0469
     39 H          -2.9422   -0.7317   -2.1729 H       1  UNL1        0.0334
     40 H          -1.7730   -1.7832   -3.0035 H       1  UNL1        0.0334
     41 H          -2.7851   -5.3171    1.1264 H       1  UNL1        0.0693
     42 H          -1.9297   -3.0432    2.2646 H       1  UNL1        0.0626
     43 H          -1.0934   -0.5857    1.6379 H       1  UNL1        0.0602
     44 H          -1.5254    1.9833    0.1406 H       1  UNL1        0.0621
     45 H          -3.5390    3.3932   -0.1216 H       1  UNL1        0.0623
     46 H          -6.0291    0.0099    0.4619 H       1  UNL1        0.0623
     47 H          -4.0258   -1.3921    0.7225 H       1  UNL1        0.0621
     48 H           3.7378   -1.9976   -0.6333 H       1  UNL1        0.0637
     49 H           6.1077   -1.8282    0.1640 H       1  UNL1        0.0655
@<TRIPOS>BOND
     1     1     2    1
     2     2     3    1
     3     3     4   ar
     4     4     5   ar
     5     5     6   ar
     6     6     7    1
     7     7     8   am
     8     8     9    2
     9     8    10   am
    10    10    11    1
    11    11    12    1
    12    12    13    1
    13    13    14   ar
    14    14    15   ar
    15    15    16   ar
    16    16    17   ar
    17    17    18    1
    18    18    19    1
    19    19    20   ar
    20    20    21   ar
    21    21    22   ar
    22    22    23    1
    23    23    24    1
    24    23    25    1
    25    23    26    1
    26    22    27   ar
    27    27    28   ar
    28     6    29   ar
    29    29    30   ar
    30    30     3   ar
    31    18    10    1
    32    28    19   ar
    33    17    13   ar
    34     1    31    1
    35     1    32    1
    36     1    33    1
    37     4    34    1
    38     5    35    1
    39     7    36    1
    40    11    37    1
    41    11    38    1
    42    12    39    1
    43    12    40    1
    44    15    41    1
    45    16    42    1
    46    18    43    1
    47    20    44    1
    48    21    45    1
    49    27    46    1
    50    28    47    1
    51    29    48    1
    52    30    49    1
@<TRIPOS>MOLECULE
50162220
 47 48 0 0 0
SMALL
GASTEIGER

@<TRIPOS>ATOM
      1 C           6.9064   -0.1094    0.5292 C.3     1  UNL1       -0.0397
      2 C           5.4612   -0.1253    0.1846 C.ar    1  UNL1       -0.0504
      3 C           4.5380    0.4642    1.0310 C.ar    1  UNL1       -0.0581
      4 C           3.1844    0.4259    0.6667 C.ar    1  UNL1       -0.0494
      5 C           2.7754   -0.1757   -0.4927 C.ar    1  UNL1        0.0367
      6 C           1.3841   -0.2031   -0.8460 C.2     1  UNL1        0.2443
      7 O           1.0514   -0.7677   -1.9229 O.2     1  UNL1       -0.2702
      8 N           0.3303    0.3558   -0.0826 N.am    1  UNL1       -0.3082
      9 C          -1.0743    0.2902   -0.5066 C.3     1  UNL1        0.0267
     10 C          -1.5443    1.7198   -0.6974 C.3     1  UNL1       -0.0316
     11 C          -2.9881    1.7929   -1.0931 C.3     1  UNL1       -0.0422
     12 C          -3.4771    3.1979   -0.8046 C.3     1  UNL1       -0.0624
     13 C          -3.8394    0.7626   -0.3588 C.3     1  UNL1       -0.0501
     14 C          -3.1057    0.4688    0.9337 C.3     1  UNL1       -0.0481
     15 C          -1.8760   -0.3189    0.5953 C.3     1  UNL1       -0.0202
     16 C          -2.3033   -1.7419    0.2923 C.3     1  UNL1       -0.0422
     17 C          -3.1072   -2.2947    1.4442 C.3     1  UNL1       -0.0624
     18 C          -1.0882   -2.6604    0.1559 C.3     1  UNL1       -0.0624
     19 C           3.7173   -0.7489   -1.3060 C.ar    1  UNL1       -0.0494
     20 C           5.0722   -0.7345   -0.9838 C.ar    1  UNL1       -0.0581
     21 H           7.1042   -0.8350    1.3386 H       1  UNL1        0.0278
     22 H           7.2292    0.9238    0.8051 H       1  UNL1        0.0278
     23 H           7.5169   -0.3984   -0.3403 H       1  UNL1        0.0278
     24 H           4.8638    0.9379    1.9448 H       1  UNL1        0.0620
     25 H           2.5249    0.9079    1.3797 H       1  UNL1        0.0625
     26 H           0.5868    0.8256    0.8093 H       1  UNL1        0.1493
     27 H          -1.1744   -0.2334   -1.4592 H       1  UNL1        0.0501
     28 H          -0.9818    2.2304   -1.5223 H       1  UNL1        0.0286
     29 H          -1.3423    2.3371    0.2117 H       1  UNL1        0.0286
     30 H          -3.0988    1.6522   -2.2058 H       1  UNL1        0.0299
     31 H          -2.8760    3.8736   -1.4591 H       1  UNL1        0.0232
     32 H          -3.2236    3.4139    0.2564 H       1  UNL1        0.0232
     33 H          -4.5514    3.2547   -1.0247 H       1  UNL1        0.0232
     34 H          -3.9004   -0.1137   -1.0245 H       1  UNL1        0.0268
     35 H          -4.8284    1.2200   -0.1590 H       1  UNL1        0.0268
     36 H          -3.7182   -0.0663    1.6614 H       1  UNL1        0.0269
     37 H          -2.8438    1.4574    1.3963 H       1  UNL1        0.0269
     38 H          -1.2663   -0.3849    1.5442 H       1  UNL1        0.0321
     39 H          -2.8790   -1.8373   -0.6302 H       1  UNL1        0.0299
     40 H          -3.0726   -3.4183    1.3294 H       1  UNL1        0.0232
     41 H          -2.6806   -2.0747    2.4253 H       1  UNL1        0.0232
     42 H          -4.1798   -2.0348    1.3883 H       1  UNL1        0.0232
     43 H          -0.3546   -2.4853    0.9664 H       1  UNL1        0.0232
     44 H          -1.4831   -3.7008    0.3305 H       1  UNL1        0.0232
     45 H          -0.6664   -2.6298   -0.8534 H       1  UNL1        0.0232
     46 H           3.4572   -1.2420   -2.2397 H       1  UNL1        0.0625
     47 H           5.8214   -1.1775   -1.6077 H       1  UNL1        0.0620
@<TRIPOS>BOND
     1     1     2    1
     2     2     3   ar
     3     3     4   ar
     4     4     5   ar
     5     5     6    1
     6     6     7    2
     7     6     8   am
     8     8     9    1
     9     9    10    1
    10    10    11    1
    11    11    12    1
    12    11    13    1
    13    13    14    1
    14    14    15    1
    15    15    16    1
    16    16    17    1
    17    16    18    1
    18     5    19   ar
    19    19    20   ar
    20    20     2   ar
    21    15     9    1
    22     1    21    1
    23     1    22    1
    24     1    23    1
    25     3    24    1
    26     4    25    1
    27     8    26    1
    28     9    27    1
    29    10    28    1
    30    10    29    1
    31    11    30    1
    32    12    31    1
    33    12    32    1
    34    12    33    1
    35    13    34    1
    36    13    35    1
    37    14    36    1
    38    14    37    1
    39    15    38    1
    40    16    39    1
    41    17    40    1
    42    17    41    1
    43    17    42    1
    44    18    43    1
    45    18    44    1
    46    18    45    1
    47    19    46    1
    48    20    47    1
@<TRIPOS>MOLECULE
50162244
 49 50 0 0 0
SMALL
GASTEIGER

@<TRIPOS>ATOM
      1 C           7.7968   -1.5873    0.1078 C.3     1  UNL1        0.0788
      2 O           7.1265   -0.7732   -0.8353 O.3     1  UNL1       -0.4951
      3 C           5.8577   -0.3013   -0.5914 C.ar    1  UNL1        0.1203
      4 C           5.2564    0.4888   -1.5508 C.ar    1  UNL1       -0.0165
      5 C           3.9870    0.9654   -1.3154 C.ar    1  UNL1       -0.0157
      6 C           3.3257    0.6682   -0.1576 C.ar    1  UNL1        0.1335
      7 O           2.0400    1.1434    0.0953 O.3     1  UNL1       -0.4115
      8 C           0.9494    0.3714   -0.3104 C.2     1  UNL1        0.4058
      9 O           1.0906   -0.7356   -0.8948 O.2     1  UNL1       -0.2260
     10 N          -0.3405    0.8627   -0.0490 N.am    1  UNL1       -0.2777
     11 C          -1.5628    0.1438   -0.4264 C.3     1  UNL1        0.0295
     12 C          -2.3507    0.9644   -1.3701 C.3     1  UNL1       -0.0315
     13 C          -3.6822    1.4173   -0.8740 C.3     1  UNL1       -0.0422
     14 C          -4.0934    2.6274   -1.7106 C.3     1  UNL1       -0.0624
     15 C          -3.5251    1.9048    0.5414 C.3     1  UNL1       -0.0501
     16 C          -3.0378    0.8553    1.4800 C.3     1  UNL1       -0.0481
     17 C          -2.2577   -0.2456    0.8329 C.3     1  UNL1       -0.0201
     18 C          -3.0659   -1.5128    0.6509 C.3     1  UNL1       -0.0422
     19 C          -2.0659   -2.5996    0.2400 C.3     1  UNL1       -0.0624
     20 C          -3.6900   -1.9520    1.9325 C.3     1  UNL1       -0.0624
     21 C           3.9255   -0.1207    0.8011 C.ar    1  UNL1       -0.0157
     22 C           5.2048   -0.6022    0.5660 C.ar    1  UNL1       -0.0165
     23 H           7.1202   -2.3561    0.5317 H       1  UNL1        0.0660
     24 H           8.6823   -2.0374   -0.3867 H       1  UNL1        0.0660
     25 H           8.1194   -0.9349    0.9573 H       1  UNL1        0.0660
     26 H           5.7781    0.7204   -2.4590 H       1  UNL1        0.0655
     27 H           3.4754    1.5911   -2.0434 H       1  UNL1        0.0655
     28 H          -0.5113    1.7904    0.4409 H       1  UNL1        0.1523
     29 H          -1.2223   -0.8008   -0.9256 H       1  UNL1        0.0502
     30 H          -1.7777    1.8936   -1.6616 H       1  UNL1        0.0286
     31 H          -2.4834    0.4213   -2.3502 H       1  UNL1        0.0286
     32 H          -4.4922    0.6799   -0.9886 H       1  UNL1        0.0299
     33 H          -4.1269    2.2999   -2.7819 H       1  UNL1        0.0232
     34 H          -5.1431    2.8776   -1.4029 H       1  UNL1        0.0232
     35 H          -3.4254    3.4814   -1.5690 H       1  UNL1        0.0232
     36 H          -2.8243    2.7832    0.5040 H       1  UNL1        0.0268
     37 H          -4.4882    2.3411    0.9332 H       1  UNL1        0.0268
     38 H          -2.4196    1.3801    2.2668 H       1  UNL1        0.0269
     39 H          -3.9192    0.4608    2.0532 H       1  UNL1        0.0269
     40 H          -1.4452   -0.5297    1.5685 H       1  UNL1        0.0321
     41 H          -3.8098   -1.4576   -0.1372 H       1  UNL1        0.0299
     42 H          -2.3351   -3.5762    0.7173 H       1  UNL1        0.0232
     43 H          -1.0418   -2.3564    0.5967 H       1  UNL1        0.0232
     44 H          -2.0265   -2.7014   -0.8712 H       1  UNL1        0.0232
     45 H          -3.9688   -3.0431    1.8489 H       1  UNL1        0.0232
     46 H          -4.6660   -1.4359    2.1451 H       1  UNL1        0.0232
     47 H          -2.9934   -1.8949    2.7940 H       1  UNL1        0.0232
     48 H           3.4200   -0.3620    1.7129 H       1  UNL1        0.0655
     49 H           5.6363   -1.2171    1.3454 H       1  UNL1        0.0655
@<TRIPOS>BOND
     1     1     2    1
     2     2     3    1
     3     3     4   ar
     4     4     5   ar
     5     5     6   ar
     6     6     7    1
     7     7     8    1
     8     8     9    2
     9     8    10   am
    10    10    11    1
    11    11    12    1
    12    12    13    1
    13    13    14    1
    14    13    15    1
    15    15    16    1
    16    16    17    1
    17    17    18    1
    18    18    19    1
    19    18    20    1
    20     6    21   ar
    21    21    22   ar
    22    22     3   ar
    23    17    11    1
    24     1    23    1
    25     1    24    1
    26     1    25    1
    27     4    26    1
    28     5    27    1
    29    10    28    1
    30    11    29    1
    31    12    30    1
    32    12    31    1
    33    13    32    1
    34    14    33    1
    35    14    34    1
    36    14    35    1
    37    15    36    1
    38    15    37    1
    39    16    38    1
    40    16    39    1
    41    17    40    1
    42    18    41    1
    43    19    42    1
    44    19    43    1
    45    19    44    1
    46    20    45    1
    47    20    46    1
    48    20    47    1
    49    21    48    1
    50    22    49    1
@<TRIPOS>MOLECULE
50254077
 49 49 0 0 0
SMALL
GASTEIGER

@<TRIPOS>ATOM
      1 C          -6.2815   -0.4759    1.1219 C.3     1  UNL1       -0.0440
      2 C          -6.1722   -0.5121   -0.3617 C.2     1  UNL1       -0.0796
      3 C          -7.3358    0.1113   -1.1074 C.3     1  UNL1       -0.0440
      4 C          -5.1577   -1.0356   -1.0230 C.2     1  UNL1       -0.0853
      5 C          -4.0289   -1.6375   -0.3191 C.3     1  UNL1       -0.0343
      6 C          -2.6994   -1.0078   -0.6507 C.3     1  UNL1       -0.0469
      7 C          -2.6014    0.4383   -0.3283 C.3     1  UNL1       -0.0405
      8 C          -2.7993    0.7682    1.1269 C.3     1  UNL1       -0.0623
      9 C          -1.2442    0.9465   -0.7551 C.3     1  UNL1       -0.0159
     10 C          -0.0929    0.2543   -0.0787 C.3     1  UNL1        0.0927
     11 O           1.0909    0.8557   -0.5906 O.3     1  UNL1       -0.4644
     12 C           2.3531    0.4907   -0.2112 C.2     1  UNL1        0.3114
     13 O           2.5219   -0.4182    0.6303 O.2     1  UNL1       -0.2505
     14 C           3.5090    1.1967   -0.8203 C.3     1  UNL1        0.0700
     15 C           4.8072    0.6980   -0.3168 C.ar    1  UNL1       -0.0367
     16 C           5.4960   -0.3386   -0.9133 C.ar    1  UNL1       -0.0578
     17 C           6.7153   -0.7840   -0.4148 C.ar    1  UNL1       -0.0586
     18 C           7.2781   -0.1986    0.7003 C.ar    1  UNL1       -0.0504
     19 C           8.5863   -0.7026    1.2061 C.3     1  UNL1       -0.0397
     20 C           6.5917    0.8377    1.2985 C.ar    1  UNL1       -0.0586
     21 C           5.3813    1.2745    0.7975 C.ar    1  UNL1       -0.0578
     22 H          -5.6006    0.2550    1.5986 H       1  UNL1        0.0274
     23 H          -7.3312   -0.3274    1.4469 H       1  UNL1        0.0274
     24 H          -6.0076   -1.4780    1.5682 H       1  UNL1        0.0274
     25 H          -7.1419    1.1807   -1.2690 H       1  UNL1        0.0274
     26 H          -7.3729   -0.3868   -2.1198 H       1  UNL1        0.0274
     27 H          -8.2565   -0.1077   -0.5527 H       1  UNL1        0.0274
     28 H          -5.1594   -1.0201   -2.1020 H       1  UNL1        0.0571
     29 H          -4.1399   -1.5893    0.7977 H       1  UNL1        0.0307
     30 H          -4.0206   -2.7224   -0.5519 H       1  UNL1        0.0307
     31 H          -2.5844   -1.1008   -1.7650 H       1  UNL1        0.0271
     32 H          -1.8654   -1.5819   -0.1966 H       1  UNL1        0.0271
     33 H          -3.3307    0.9984   -0.9585 H       1  UNL1        0.0299
     34 H          -1.9049    1.2589    1.5885 H       1  UNL1        0.0232
     35 H          -3.6123    1.5438    1.2389 H       1  UNL1        0.0232
     36 H          -3.0717   -0.0935    1.7492 H       1  UNL1        0.0232
     37 H          -1.1606    2.0291   -0.4764 H       1  UNL1        0.0301
     38 H          -1.1327    0.9256   -1.8674 H       1  UNL1        0.0301
     39 H           0.0020   -0.8233   -0.3662 H       1  UNL1        0.0697
     40 H          -0.1814    0.3498    1.0034 H       1  UNL1        0.0697
     41 H           3.3722    2.2794   -0.6111 H       1  UNL1        0.0426
     42 H           3.4486    1.1057   -1.9386 H       1  UNL1        0.0426
     43 H           5.0713   -0.8014   -1.7784 H       1  UNL1        0.0620
     44 H           7.2627   -1.6060   -0.8869 H       1  UNL1        0.0620
     45 H           9.0336    0.0223    1.9254 H       1  UNL1        0.0278
     46 H           8.5141   -1.6733    1.6991 H       1  UNL1        0.0278
     47 H           9.3442   -0.7772    0.3746 H       1  UNL1        0.0278
     48 H           7.0590    1.2850    2.1809 H       1  UNL1        0.0620
     49 H           4.8493    2.0945    1.2799 H       1  UNL1        0.0620
@<TRIPOS>BOND
     1     1     2    1
     2     2     3    1
     3     2     4    2
     4     4     5    1
     5     5     6    1
     6     6     7    1
     7     7     8    1
     8     7     9    1
     9     9    10    1
    10    10    11    1
    11    11    12    1
    12    12    13    2
    13    12    14    1
    14    14    15    1
    15    15    16   ar
    16    16    17   ar
    17    17    18   ar
    18    18    19    1
    19    18    20   ar
    20    20    21   ar
    21    21    15   ar
    22     1    22    1
    23     1    23    1
    24     1    24    1
    25     3    25    1
    26     3    26    1
    27     3    27    1
    28     4    28    1
    29     5    29    1
    30     5    30    1
    31     6    31    1
    32     6    32    1
    33     7    33    1
    34     8    34    1
    35     8    35    1
    36     8    36    1
    37     9    37    1
    38     9    38    1
    39    10    39    1
    40    10    40    1
    41    14    41    1
    42    14    42    1
    43    16    43    1
    44    17    44    1
    45    19    45    1
    46    19    46    1
    47    19    47    1
    48    20    48    1
    49    21    49    1
@<TRIPOS>MOLECULE
71801263
 46 49 0 0 0
SMALL
GASTEIGER

@<TRIPOS>ATOM
      1 O           2.6297   -0.5580   -1.3323 O.2     1  UNL1       -0.2523
      2 C           2.3162    0.1675   -0.3218 C.2     1  UNL1        0.3064
      3 N           3.3508    0.5755    0.5532 N.am    1  UNL1       -0.2693
      4 C           4.7176    0.1909    0.3230 C.ar    1  UNL1        0.0348
      5 C           5.5412    0.9672   -0.4297 C.ar    1  UNL1       -0.0404
      6 C           6.8532    0.5460   -0.6191 C.ar    1  UNL1       -0.0600
      7 C           7.3038   -0.6433   -0.0480 C.ar    1  UNL1       -0.0616
      8 C           6.4672   -1.4298    0.7153 C.ar    1  UNL1       -0.0600
      9 C           5.1584   -0.9763    0.8839 C.ar    1  UNL1       -0.0404
     10 N           0.9615    0.5026   -0.1619 N.am    1  UNL1       -0.2851
     11 C           0.0165    0.0080   -1.1564 C.3     1  UNL1        0.0198
     12 C          -1.2574   -0.5028   -0.5943 C.3     1  UNL1        0.0030
     13 C          -1.7494    0.2651    0.6059 C.3     1  UNL1        0.1138
     14 C          -2.3895    1.5548    0.0751 C.3     1  UNL1       -0.0087
     15 C          -3.5007    1.2372   -0.8613 C.3     1  UNL1       -0.0206
     16 C          -4.3185    0.0652   -0.4843 C.ar    1  UNL1       -0.0056
     17 C          -5.4932   -0.2351   -1.1898 C.ar    1  UNL1       -0.0551
     18 C          -6.2474   -1.3327   -0.8265 C.ar    1  UNL1       -0.0613
     19 C          -5.8797   -2.1508    0.2171 C.ar    1  UNL1       -0.0583
     20 C          -4.7263   -1.8400    0.8953 C.ar    1  UNL1       -0.0196
     21 C          -3.9290   -0.7340    0.5603 C.ar    1  UNL1        0.1245
     22 O          -2.7735   -0.4513    1.2659 O.3     1  UNL1       -0.4853
     23 C          -0.6870    0.5810    1.5912 C.3     1  UNL1        0.0030
     24 C           0.4909    1.3088    0.9386 C.3     1  UNL1        0.0198
     25 H           3.1228    1.1647    1.3768 H       1  UNL1        0.1564
     26 H           5.1657    1.8927   -0.8657 H       1  UNL1        0.0636
     27 H           7.5284    1.1294   -1.2038 H       1  UNL1        0.0618
     28 H           8.3294   -0.9620   -0.2024 H       1  UNL1        0.0618
     29 H           6.7870   -2.3474    1.1654 H       1  UNL1        0.0618
     30 H           4.5091   -1.6202    1.4967 H       1  UNL1        0.0636
     31 H           0.4888   -0.7504   -1.7931 H       1  UNL1        0.0466
     32 H          -0.2266    0.8783   -1.8311 H       1  UNL1        0.0466
     33 H          -2.0099   -0.5322   -1.4070 H       1  UNL1        0.0319
     34 H          -1.0970   -1.5737   -0.2911 H       1  UNL1        0.0319
     35 H          -2.6886    2.2253    0.9011 H       1  UNL1        0.0307
     36 H          -1.5799    2.0566   -0.5317 H       1  UNL1        0.0307
     37 H          -3.1538    1.0774   -1.9073 H       1  UNL1        0.0316
     38 H          -4.2236    2.1022   -0.9223 H       1  UNL1        0.0316
     39 H          -5.7708    0.4116   -2.0037 H       1  UNL1        0.0621
     40 H          -7.1576   -1.5248   -1.4097 H       1  UNL1        0.0618
     41 H          -6.4902   -2.9932    0.4696 H       1  UNL1        0.0619
     42 H          -4.3754   -2.4357    1.7257 H       1  UNL1        0.0654
     43 H          -0.2747   -0.3494    2.0068 H       1  UNL1        0.0319
     44 H          -1.1066    1.2180    2.3804 H       1  UNL1        0.0319
     45 H           0.1325    2.3066    0.5470 H       1  UNL1        0.0466
     46 H           1.2356    1.5105    1.6978 H       1  UNL1        0.0466
@<TRIPOS>BOND
     1     1     2    2
     2     2     3   am
     3     3     4    1
     4     4     5   ar
     5     5     6   ar
     6     6     7   ar
     7     7     8   ar
     8     8     9   ar
     9     2    10   am
    10    10    11    1
    11    11    12    1
    12    12    13    1
    13    13    14    1
    14    14    15    1
    15    15    16    1
    16    16    17   ar
    17    17    18   ar
    18    18    19   ar
    19    19    20   ar
    20    20    21   ar
    21    21    22    1
    22    13    23    1
    23    23    24    1
    24     9     4   ar
    25    24    10    1
    26    22    13    1
    27    21    16   ar
    28     3    25    1
    29     5    26    1
    30     6    27    1
    31     7    28    1
    32     8    29    1
    33     9    30    1
    34    11    31    1
    35    11    32    1
    36    12    33    1
    37    12    34    1
    38    14    35    1
    39    14    36    1
    40    15    37    1
    41    15    38    1
    42    17    39    1
    43    18    40    1
    44    19    41    1
    45    20    42    1
    46    23    43    1
    47    23    44    1
    48    24    45    1
    49    24    46    1
@<TRIPOS>MOLECULE
50575125
 44 45 0 0 0
SMALL
GASTEIGER

@<TRIPOS>ATOM
      1 C          -0.8882   -2.1051   -1.6201 C.3     1  UNL1       -0.0624
      2 C          -1.8750   -1.6015   -0.6117 C.3     1  UNL1       -0.0422
      3 C          -2.5021   -2.7800    0.0802 C.3     1  UNL1       -0.0624
      4 C          -1.2304   -0.7271    0.4424 C.3     1  UNL1       -0.0202
      5 C          -2.3091   -0.2751    1.4043 C.3     1  UNL1       -0.0481
      6 C          -3.3220    0.6207    0.7415 C.3     1  UNL1       -0.0501
      7 C          -2.5938    1.7262    0.0188 C.3     1  UNL1       -0.0422
      8 C          -3.1380    3.0964    0.3658 C.3     1  UNL1       -0.0624
      9 C          -1.1194    1.7279    0.3784 C.3     1  UNL1       -0.0316
     10 C          -0.5082    0.4547   -0.1467 C.3     1  UNL1        0.0267
     11 N           0.8930    0.3570    0.2397 N.am    1  UNL1       -0.3082
     12 C           1.9334    0.2438   -0.7166 C.2     1  UNL1        0.2443
     13 O           1.5775    0.2323   -1.9243 O.2     1  UNL1       -0.2702
     14 C           3.3505    0.1424   -0.4055 C.ar    1  UNL1        0.0381
     15 C           4.2606    0.0374   -1.4420 C.ar    1  UNL1       -0.0495
     16 C           5.6076   -0.0616   -1.2255 C.ar    1  UNL1       -0.0597
     17 C           6.0589   -0.0555    0.0628 C.ar    1  UNL1       -0.0433
     18 C           5.1757    0.0476    1.1052 C.ar    1  UNL1        0.0417
     19 CL          5.7596    0.0547    2.7485 Cl      1  UNL1       -0.0835
     20 C           3.8089    0.1485    0.9011 C.ar    1  UNL1       -0.0313
     21 H           0.0324   -2.5301   -1.1681 H       1  UNL1        0.0232
     22 H          -1.3790   -2.9692   -2.1480 H       1  UNL1        0.0232
     23 H          -0.6146   -1.3644   -2.3825 H       1  UNL1        0.0232
     24 H          -2.6597   -1.0446   -1.1588 H       1  UNL1        0.0299
     25 H          -1.9893   -3.0666    1.0137 H       1  UNL1        0.0232
     26 H          -3.5863   -2.6228    0.2975 H       1  UNL1        0.0232
     27 H          -2.4311   -3.6734   -0.5951 H       1  UNL1        0.0232
     28 H          -0.5512   -1.3927    1.0300 H       1  UNL1        0.0321
     29 H          -1.8614    0.1698    2.3012 H       1  UNL1        0.0269
     30 H          -2.8526   -1.2013    1.7284 H       1  UNL1        0.0269
     31 H          -3.9247    1.0960    1.5414 H       1  UNL1        0.0268
     32 H          -3.9097    0.0654    0.0107 H       1  UNL1        0.0268
     33 H          -2.6400    1.5974   -1.0984 H       1  UNL1        0.0299
     34 H          -4.1572    3.0335    0.8288 H       1  UNL1        0.0232
     35 H          -3.1480    3.7707   -0.5322 H       1  UNL1        0.0232
     36 H          -2.5037    3.6243    1.1127 H       1  UNL1        0.0232
     37 H          -0.9623    1.8128    1.4698 H       1  UNL1        0.0286
     38 H          -0.6955    2.6216   -0.1276 H       1  UNL1        0.0286
     39 H          -0.6349    0.4285   -1.2399 H       1  UNL1        0.0501
     40 H           1.1667    0.3683    1.2429 H       1  UNL1        0.1493
     41 H           3.8622    0.0361   -2.4527 H       1  UNL1        0.0625
     42 H           6.2743   -0.1404   -2.0422 H       1  UNL1        0.0618
     43 H           7.1170   -0.1324    0.2608 H       1  UNL1        0.0632
     44 H           3.1090    0.2298    1.7130 H       1  UNL1        0.0640
@<TRIPOS>BOND
     1     1     2    1
     2     2     3    1
     3     2     4    1
     4     4     5    1
     5     5     6    1
     6     6     7    1
     7     7     8    1
     8     7     9    1
     9     9    10    1
    10    10    11    1
    11    11    12   am
    12    12    13    2
    13    12    14    1
    14    14    15   ar
    15    15    16   ar
    16    16    17   ar
    17    17    18   ar
    18    18    19    1
    19    18    20   ar
    20    10     4    1
    21    20    14   ar
    22     1    21    1
    23     1    22    1
    24     1    23    1
    25     2    24    1
    26     3    25    1
    27     3    26    1
    28     3    27    1
    29     4    28    1
    30     5    29    1
    31     5    30    1
    32     6    31    1
    33     6    32    1
    34     7    33    1
    35     8    34    1
    36     8    35    1
    37     8    36    1
    38     9    37    1
    39     9    38    1
    40    10    39    1
    41    11    40    1
    42    15    41    1
    43    16    42    1
    44    17    43    1
    45    20    44    1
@<TRIPOS>MOLECULE
118719634
 46 48 0 0 0
SMALL
GASTEIGER

@<TRIPOS>ATOM
      1 N          -3.0585    0.2160   -2.2521 N.1     1  UNL1       -0.1908
      2 C          -2.6637    0.8983   -1.3761 C.1     1  UNL1        0.1027
      3 C          -2.1897    1.7324   -0.2735 C.ar    1  UNL1        0.0936
      4 C          -2.9152    2.8424    0.1113 C.ar    1  UNL1       -0.0279
      5 C          -2.4467    3.6487    1.1149 C.ar    1  UNL1        0.0742
      6 C          -3.1907    4.8491    1.5799 C.3     1  UNL1        0.4189
      7 F          -2.7433    5.9485    0.9116 F       1  UNL1       -0.1658
      8 F          -4.5551    4.6673    1.4596 F       1  UNL1       -0.1658
      9 F          -2.9476    5.0260    2.9324 F       1  UNL1       -0.1658
     10 C          -1.2517    3.2926    1.6896 C.ar    1  UNL1        0.0415
     11 N          -0.5554    2.1955    1.2973 N.ar    1  UNL1       -0.2369
     12 C          -0.9842    1.3747    0.3127 C.ar    1  UNL1        0.1582
     13 N          -0.2691    0.2226   -0.0833 N.pl3   1  UNL1       -0.1803
     14 C          -0.5080   -1.0414    0.5667 C.3     1  UNL1        0.0615
     15 C          -1.6448   -1.8065    0.0601 C.ar    1  UNL1       -0.0283
     16 C          -1.4837   -2.6541   -1.0121 C.ar    1  UNL1       -0.0570
     17 C          -2.5318   -3.3880   -1.5398 C.ar    1  UNL1       -0.0615
     18 C          -3.7818   -3.2618   -0.9657 C.ar    1  UNL1       -0.0617
     19 C          -3.9297   -2.4133    0.1053 C.ar    1  UNL1       -0.0615
     20 C          -2.8849   -1.6835    0.6288 C.ar    1  UNL1       -0.0570
     21 S           0.8880    0.3085   -1.3442 S.O2    1  UNL1        0.0762
     22 O           0.4388   -0.4962   -2.5260 O.2     1  UNL1       -0.1497
     23 O           1.0075    1.7457   -1.8620 O.2     1  UNL1       -0.1497
     24 C           2.4895   -0.1205   -0.8172 C.ar    1  UNL1        0.1088
     25 C           3.3903    0.8477   -0.4016 C.ar    1  UNL1       -0.0343
     26 C           4.6327    0.4849    0.0037 C.ar    1  UNL1       -0.0459
     27 C           5.0830   -0.8753    0.0275 C.ar    1  UNL1        0.0589
     28 C           6.4495   -1.0825    0.3702 C.2     1  UNL1        0.3368
     29 O           7.5293   -1.2465    0.6410 O.2     1  UNL1       -0.2451
     30 O           6.2547   -2.7859    0.7311 O.3     1  UNL1       -0.4771
     31 C           4.1219   -1.7617   -0.4018 C.ar    1  UNL1       -0.0459
     32 C           2.8562   -1.4169   -0.8171 C.ar    1  UNL1       -0.0343
     33 H          -3.8546    3.0737   -0.3706 H       1  UNL1        0.0637
     34 H          -0.8534    3.9233    2.4966 H       1  UNL1        0.0836
     35 H          -0.6543   -0.7738    1.6598 H       1  UNL1        0.0532
     36 H           0.4398   -1.6541    0.5941 H       1  UNL1        0.0532
     37 H          -0.5328   -2.8118   -1.5141 H       1  UNL1        0.0621
     38 H          -2.3709   -4.0535   -2.3978 H       1  UNL1        0.0618
     39 H          -4.6121   -3.8270   -1.3722 H       1  UNL1        0.0618
     40 H          -4.9251   -2.3403    0.5279 H       1  UNL1        0.0618
     41 H          -3.0566   -1.0132    1.4938 H       1  UNL1        0.0621
     42 H           3.1332    1.9159   -0.3777 H       1  UNL1        0.0637
     43 H           5.3775    1.2032    0.3425 H       1  UNL1        0.0626
     44 H           6.7549   -2.8382    1.6279 H       1  UNL1        0.2954
     45 H           4.3689   -2.8376   -0.4382 H       1  UNL1        0.0626
     46 H           2.1798   -2.2331   -1.1434 H       1  UNL1        0.0637
@<TRIPOS>BOND
     1     1     2    3
     2     2     3    1
     3     3     4   ar
     4     4     5   ar
     5     5     6    1
     6     6     7    1
     7     6     8    1
     8     6     9    1
     9     5    10   ar
    10    10    11   ar
    11    11    12   ar
    12    12    13    1
    13    13    14    1
    14    14    15    1
    15    15    16   ar
    16    16    17   ar
    17    17    18   ar
    18    18    19   ar
    19    19    20   ar
    20    13    21    1
    21    21    22    2
    22    21    23    2
    23    21    24    1
    24    24    25   ar
    25    25    26   ar
    26    26    27   ar
    27    27    28    1
    28    28    29    2
    29    28    30    1
    30    27    31   ar
    31    31    32   ar
    32    12     3   ar
    33    20    15   ar
    34    32    24   ar
    35     4    33    1
    36    10    34    1
    37    14    35    1
    38    14    36    1
    39    16    37    1
    40    17    38    1
    41    18    39    1
    42    19    40    1
    43    20    41    1
    44    25    42    1
    45    26    43    1
    46    30    44    1
    47    31    45    1
    48    32    46    1
@<TRIPOS>MOLECULE
50543011
 48 50 0 0 0
SMALL
GASTEIGER

@<TRIPOS>ATOM
      1 C           0.9583    1.6686   -1.7414 C.3     1  UNL1       -0.0422
      2 C           1.2417    1.0301   -0.3765 C.3     1  UNL1        0.0498
      3 C           2.6234    0.5139   -0.3665 C.ar    1  UNL1       -0.0259
      4 C           3.3737    0.5479   -1.5516 C.ar    1  UNL1       -0.0567
      5 C           4.6778    0.1050   -1.6209 C.ar    1  UNL1       -0.0601
      6 C           5.2800   -0.3929   -0.4944 C.ar    1  UNL1       -0.0434
      7 C           4.5953   -0.4541    0.7038 C.ar    1  UNL1        0.0413
      8 CL          5.3495   -1.0997    2.1711 Cl      1  UNL1       -0.0835
      9 C           3.2899    0.0029    0.7191 C.ar    1  UNL1       -0.0384
     10 N           0.2305    0.0455   -0.0516 N.am    1  UNL1       -0.2751
     11 C           0.3097   -1.2023   -0.7845 C.2     1  UNL1        0.2494
     12 O           1.2302   -1.3225   -1.6165 O.2     1  UNL1       -0.2699
     13 C          -0.6392   -2.2771   -0.5657 C.ar    1  UNL1        0.0550
     14 C          -0.5241   -3.0426    0.5661 C.ar    1  UNL1       -0.0467
     15 C          -1.4115   -4.0631    0.7854 C.ar    1  UNL1       -0.0429
     16 C          -2.4130   -4.3219   -0.1202 C.ar    1  UNL1        0.0276
     17 N          -2.4901   -3.5497   -1.2122 N.ar    1  UNL1       -0.2625
     18 C          -1.6437   -2.5538   -1.4510 C.ar    1  UNL1        0.0397
     19 C          -0.8332    0.1872    0.8799 C.3     1  UNL1        0.1280
     20 C          -0.5121    0.4642    2.2759 C.2     1  UNL1        0.2356
     21 N          -1.5987    0.2979    3.2161 N.am    1  UNL1       -0.3275
     22 O           0.5649    0.8229    2.7693 O.2     1  UNL1       -0.2736
     23 C          -1.8186    1.2358    0.4346 C.ar    1  UNL1       -0.0182
     24 C          -2.3497    1.1235   -0.8245 C.ar    1  UNL1       -0.0563
     25 C          -3.2614    2.0793   -1.3005 C.ar    1  UNL1       -0.0614
     26 C          -3.6180    3.1288   -0.4971 C.ar    1  UNL1       -0.0617
     27 C          -3.0766    3.2290    0.7623 C.ar    1  UNL1       -0.0614
     28 C          -2.1774    2.2822    1.2274 C.ar    1  UNL1       -0.0563
     29 H           0.9212    0.9715   -2.5607 H       1  UNL1        0.0251
     30 H           0.0703    2.3227   -1.6104 H       1  UNL1        0.0251
     31 H           1.8150    2.3895   -1.9024 H       1  UNL1        0.0251
     32 H           1.1149    1.8799    0.3229 H       1  UNL1        0.0548
     33 H           2.9594    0.9198   -2.4850 H       1  UNL1        0.0621
     34 H           5.2618    0.1329   -2.5411 H       1  UNL1        0.0618
     35 H           6.2959   -0.7534   -0.4937 H       1  UNL1        0.0632
     36 H           2.7829   -0.0590    1.6632 H       1  UNL1        0.0635
     37 H           0.2589   -2.8741    1.3137 H       1  UNL1        0.0626
     38 H          -1.3601   -4.6981    1.6692 H       1  UNL1        0.0633
     39 H          -3.1209   -5.1339    0.0585 H       1  UNL1        0.0829
     40 H          -1.7159   -1.9272   -2.3532 H       1  UNL1        0.0837
     41 H          -1.4004   -0.8096    0.8825 H       1  UNL1        0.0648
     42 H          -1.6825    0.8954    4.0506 H       1  UNL1        0.1450
     43 H          -2.2951   -0.4443    3.0316 H       1  UNL1        0.1450
     44 H          -2.0928    0.3147   -1.4748 H       1  UNL1        0.0621
     45 H          -3.6874    2.0093   -2.2837 H       1  UNL1        0.0618
     46 H          -4.3365    3.8865   -0.8619 H       1  UNL1        0.0618
     47 H          -3.3675    4.0649    1.3943 H       1  UNL1        0.0618
     48 H          -1.7790    2.4273    2.2445 H       1  UNL1        0.0621
@<TRIPOS>BOND
     1     1     2    1
     2     2     3    1
     3     3     4   ar
     4     4     5   ar
     5     5     6   ar
     6     6     7   ar
     7     7     8    1
     8     7     9   ar
     9     2    10    1
    10    10    11   am
    11    11    12    2
    12    11    13    1
    13    13    14   ar
    14    14    15   ar
    15    15    16   ar
    16    16    17   ar
    17    17    18   ar
    18    10    19    1
    19    19    20    1
    20    20    21   am
    21    20    22    2
    22    19    23    1
    23    23    24   ar
    24    24    25   ar
    25    25    26   ar
    26    26    27   ar
    27    27    28   ar
    28     9     3   ar
    29    18    13   ar
    30    28    23   ar
    31     1    29    1
    32     1    30    1
    33     1    31    1
    34     2    32    1
    35     4    33    1
    36     5    34    1
    37     6    35    1
    38     9    36    1
    39    14    37    1
    40    15    38    1
    41    16    39    1
    42    18    40    1
    43    19    41    1
    44    21    42    1
    45    21    43    1
    46    24    44    1
    47    25    45    1
    48    26    46    1
    49    27    47    1
    50    28    48    1
@<TRIPOS>MOLECULE
50934326
 44 46 0 0 0
SMALL
GASTEIGER

@<TRIPOS>ATOM
      1 O           2.2872   -0.7721   -1.4101 O.2     1  UNL1       -0.2523
      2 C           1.3701   -0.6741   -0.5572 C.2     1  UNL1        0.3069
      3 N           1.5785    0.2649    0.4906 N.am    1  UNL1       -0.2693
      4 C           2.7714    1.0602    0.5728 C.ar    1  UNL1        0.0349
      5 C           2.8737    2.2962   -0.0268 C.ar    1  UNL1       -0.0377
      6 C           4.0814    2.9822    0.1183 C.ar    1  UNL1       -0.0247
      7 C           5.1392    2.4821    0.8172 C.ar    1  UNL1        0.1235
      8 F           6.2929    3.1932    0.9268 F       1  UNL1       -0.2055
      9 C           5.0223    1.2425    1.4126 C.ar    1  UNL1       -0.0247
     10 C           3.8553    0.5501    1.2877 C.ar    1  UNL1       -0.0377
     11 N           0.1994   -1.4712   -0.6594 N.am    1  UNL1       -0.2783
     12 C           0.0828   -2.4002   -1.7661 C.3     1  UNL1        0.0168
     13 C          -0.0221   -3.8048   -1.1724 C.3     1  UNL1       -0.0370
     14 C          -0.9508   -3.8500    0.0080 C.3     1  UNL1       -0.0496
     15 C          -1.7997   -2.6020   -0.0254 C.3     1  UNL1       -0.0300
     16 C          -0.8905   -1.4240    0.2641 C.3     1  UNL1        0.0526
     17 C          -1.7142   -0.2004    0.1456 C.ar    1  UNL1       -0.0269
     18 C          -2.1389    0.3377   -1.0220 C.ar    1  UNL1       -0.0563
     19 C          -2.9162    1.4969   -1.0718 C.ar    1  UNL1       -0.0498
     20 C          -3.2594    2.1101    0.1197 C.ar    1  UNL1        0.0548
     21 C          -4.0808    3.3346    0.0624 C.3     1  UNL1        0.4174
     22 F          -5.1088    3.2018    0.9740 F       1  UNL1       -0.1659
     23 F          -3.3553    4.4803    0.3140 F       1  UNL1       -0.1659
     24 F          -4.6567    3.4775   -1.1889 F       1  UNL1       -0.1659
     25 C          -2.8380    1.5794    1.3164 C.ar    1  UNL1       -0.0498
     26 C          -2.0692    0.4292    1.3214 C.ar    1  UNL1       -0.0563
     27 H           0.8266    0.3583    1.2070 H       1  UNL1        0.1564
     28 H           2.0426    2.7044   -0.5839 H       1  UNL1        0.0637
     29 H           4.1705    3.9529   -0.3489 H       1  UNL1        0.0647
     30 H           5.8353    0.8288    1.9650 H       1  UNL1        0.0647
     31 H           3.7381   -0.4267    1.7465 H       1  UNL1        0.0637
     32 H          -0.7594   -2.1961   -2.4316 H       1  UNL1        0.0465
     33 H           0.9963   -2.4154   -2.3955 H       1  UNL1        0.0465
     34 H          -0.3755   -4.5181   -1.9552 H       1  UNL1        0.0280
     35 H           1.0175   -4.1169   -0.8936 H       1  UNL1        0.0280
     36 H          -0.3709   -3.8112    0.9682 H       1  UNL1        0.0266
     37 H          -1.5397   -4.7815   -0.0100 H       1  UNL1        0.0266
     38 H          -2.6497   -2.6525    0.6842 H       1  UNL1        0.0286
     39 H          -2.2194   -2.5145   -1.0457 H       1  UNL1        0.0286
     40 H          -0.5035   -1.5756    1.2890 H       1  UNL1        0.0551
     41 H          -1.8772   -0.1308   -1.9427 H       1  UNL1        0.0621
     42 H          -3.2126    1.8605   -2.0304 H       1  UNL1        0.0623
     43 H          -3.1161    2.0726    2.2386 H       1  UNL1        0.0623
     44 H          -1.7563    0.0417    2.2891 H       1  UNL1        0.0621
@<TRIPOS>BOND
     1     1     2    2
     2     2     3   am
     3     3     4    1
     4     4     5   ar
     5     5     6   ar
     6     6     7   ar
     7     7     8    1
     8     7     9   ar
     9     9    10   ar
    10     2    11   am
    11    11    12    1
    12    12    13    1
    13    13    14    1
    14    14    15    1
    15    15    16    1
    16    16    17    1
    17    17    18   ar
    18    18    19   ar
    19    19    20   ar
    20    20    21    1
    21    21    22    1
    22    21    23    1
    23    21    24    1
    24    20    25   ar
    25    25    26   ar
    26    10     4   ar
    27    16    11    1
    28    26    17   ar
    29     3    27    1
    30     5    28    1
    31     6    29    1
    32     9    30    1
    33    10    31    1
    34    12    32    1
    35    12    33    1
    36    13    34    1
    37    13    35    1
    38    14    36    1
    39    14    37    1
    40    15    38    1
    41    15    39    1
    42    16    40    1
    43    18    41    1
    44    19    42    1
    45    25    43    1
    46    26    44    1
@<TRIPOS>MOLECULE
171352068
 34 36 0 0 0
SMALL
GASTEIGER

@<TRIPOS>ATOM
      1 C           6.6478   -1.3362   -0.1603 C.3     1  UNL1       -0.0438
      2 C           6.1007   -0.1452    0.5716 C.3     1  UNL1        0.0600
      3 N           4.8100    0.2609   -0.0147 N.ar    1  UNL1       -0.1631
      4 N           4.6397    1.1239   -0.9982 N.ar    1  UNL1       -0.0458
      5 N           3.3576    1.2527   -1.2732 N.ar    1  UNL1       -0.1071
      6 C           2.6617    0.4325   -0.4261 C.ar    1  UNL1        0.2163
      7 C           1.2377    0.2799   -0.4006 C.ar    1  UNL1        0.1230
      8 S           0.0752    1.2406    0.6744 S.2     1  UNL1       -0.0600
      9 C          -1.4120    0.4375    0.0757 C.ar    1  UNL1        0.1163
     10 C          -2.7066    0.7896    0.5758 C.ar    1  UNL1        0.0489
     11 C          -2.9010    1.7677    1.5497 C.ar    1  UNL1       -0.0485
     12 C          -4.1707    2.0684    1.9967 C.ar    1  UNL1       -0.0609
     13 C          -5.2560    1.3985    1.4783 C.ar    1  UNL1       -0.0583
     14 C          -5.0939    0.4395    0.5268 C.ar    1  UNL1       -0.0193
     15 C          -3.8068    0.1526    0.0911 C.ar    1  UNL1        0.1298
     16 O          -3.6619   -0.8327   -0.8838 O.3     1  UNL1       -0.4944
     17 C          -4.7687   -1.5244   -1.4208 C.3     1  UNL1        0.0788
     18 N          -0.9276   -0.3860   -0.7833 N.ar    1  UNL1       -0.2046
     19 C           0.3226   -0.5074   -1.0537 C.ar    1  UNL1        0.2313
     20 O           0.8048   -1.4391   -2.0176 O.3     1  UNL1       -0.4915
     21 N           3.6125   -0.1548    0.3284 N.ar    1  UNL1       -0.1297
     22 H           6.0165   -2.2111    0.0334 H       1  UNL1        0.0248
     23 H           6.6675   -1.0867   -1.2392 H       1  UNL1        0.0248
     24 H           7.6621   -1.5343    0.2468 H       1  UNL1        0.0248
     25 H           6.7760    0.7105    0.6216 H       1  UNL1        0.0524
     26 H           5.8624   -0.4623    1.6031 H       1  UNL1        0.0524
     27 H          -2.0314    2.2621    1.9239 H       1  UNL1        0.0625
     28 H          -4.2995    2.8448    2.7668 H       1  UNL1        0.0618
     29 H          -6.2269    1.6675    1.8581 H       1  UNL1        0.0619
     30 H          -5.9409   -0.1054    0.1008 H       1  UNL1        0.0654
     31 H          -5.4329   -0.8142   -1.9420 H       1  UNL1        0.0660
     32 H          -4.4245   -2.2953   -2.1098 H       1  UNL1        0.0660
     33 H          -5.3528   -1.9600   -0.5719 H       1  UNL1        0.0660
     34 H           1.1593   -2.3339   -1.7279 H       1  UNL1        0.2938
@<TRIPOS>BOND
     1     1     2    1
     2     2     3    1
     3     3     4   ar
     4     4     5   ar
     5     5     6   ar
     6     6     7    1
     7     7     8   ar
     8     8     9   ar
     9     9    10    1
    10    10    11   ar
    11    11    12   ar
    12    12    13   ar
    13    13    14   ar
    14    14    15   ar
    15    15    16    1
    16    16    17    1
    17     9    18   ar
    18    18    19   ar
    19    19    20    1
    20     6    21   ar
    21    21     3   ar
    22    19     7   ar
    23    15    10   ar
    24     1    22    1
    25     1    23    1
    26     1    24    1
    27     2    25    1
    28     2    26    1
    29    11    27    1
    30    12    28    1
    31    13    29    1
    32    14    30    1
    33    17    31    1
    34    17    32    1
    35    17    33    1
    36    20    34    1
@<TRIPOS>MOLECULE
51345615
 58 62 0 0 0
SMALL
GASTEIGER

@<TRIPOS>ATOM
      1 C           7.5525    1.4414    0.8355 C.3     1  UNL1        0.0788
      2 O           6.8585    1.4024   -0.3790 O.3     1  UNL1       -0.4951
      3 C           5.7805    0.5577   -0.6179 C.ar    1  UNL1        0.1201
      4 C           5.1578    0.5878   -1.8473 C.ar    1  UNL1       -0.0196
      5 C           4.0759   -0.2250   -2.1593 C.ar    1  UNL1       -0.0536
      6 C           3.5921   -1.1078   -1.2044 C.ar    1  UNL1       -0.0293
      7 C           2.4498   -1.9666   -1.5347 C.3     1  UNL1        0.0489
      8 N           1.1727   -1.3534   -1.2227 N.am    1  UNL1       -0.2199
      9 C           0.3639   -0.5380   -2.0532 C.2     1  UNL1        0.2442
     10 O           0.6009   -0.2995   -3.2581 O.2     1  UNL1       -0.2731
     11 C          -0.7641   -0.0354   -1.2868 C.3     1  UNL1        0.1090
     12 C          -0.7451    1.4180   -0.9520 C.3     1  UNL1        0.0020
     13 C          -1.9580    1.7180   -0.1530 C.ar    1  UNL1       -0.0151
     14 C          -2.4929    0.7928    0.6981 C.ar    1  UNL1        0.0411
     15 N          -3.6001    1.3398    1.2976 N.ar    1  UNL1       -0.3562
     16 C          -3.7882    2.5885    0.8546 C.ar    1  UNL1        0.0470
     17 C          -4.7452    3.5343    1.1504 C.ar    1  UNL1       -0.0378
     18 C          -4.6411    4.7425    0.5000 C.ar    1  UNL1       -0.0598
     19 C          -3.6403    5.0244   -0.4087 C.ar    1  UNL1       -0.0611
     20 C          -2.6881    4.0467   -0.6857 C.ar    1  UNL1       -0.0523
     21 C          -2.7771    2.8426   -0.0489 C.ar    1  UNL1        0.0032
     22 C          -1.8798   -0.5506    0.8595 C.3     1  UNL1        0.0689
     23 C          -2.9464   -1.5933    0.6152 C.3     1  UNL1       -0.0263
     24 C          -2.4350   -2.9934    0.7550 C.3     1  UNL1       -0.0447
     25 C          -3.5716   -3.9827    0.4889 C.3     1  UNL1       -0.0626
     26 C          -1.9480   -3.3014    2.1521 C.3     1  UNL1       -0.0626
     27 N          -0.7479   -0.7402   -0.0074 N.am    1  UNL1       -0.2648
     28 C           0.4718   -1.4577    0.0106 C.2     1  UNL1        0.3126
     29 O           0.8970   -2.1215    1.0132 O.2     1  UNL1       -0.2519
     30 C           4.2055   -1.1446    0.0212 C.ar    1  UNL1       -0.0536
     31 C           5.2937   -0.3225    0.3253 C.ar    1  UNL1       -0.0196
     32 H           8.4003    2.1375    0.7323 H       1  UNL1        0.0660
     33 H           6.9005    1.7630    1.6797 H       1  UNL1        0.0660
     34 H           7.9604    0.4524    1.1349 H       1  UNL1        0.0660
     35 H           5.5247    1.2667   -2.5912 H       1  UNL1        0.0654
     36 H           3.5877   -0.2012   -3.1236 H       1  UNL1        0.0622
     37 H           2.5273   -2.2310   -2.6198 H       1  UNL1        0.0519
     38 H           2.5608   -2.9198   -0.9788 H       1  UNL1        0.0519
     39 H          -1.7364   -0.3015   -1.7668 H       1  UNL1        0.0601
     40 H           0.1317    1.6141   -0.2683 H       1  UNL1        0.0337
     41 H          -0.6504    2.0886   -1.8313 H       1  UNL1        0.0337
     42 H          -4.2160    0.8783    1.9922 H       1  UNL1        0.1657
     43 H          -5.5551    3.3962    1.8427 H       1  UNL1        0.0638
     44 H          -5.3732    5.5163    0.7019 H       1  UNL1        0.0618
     45 H          -3.5993    5.9909   -0.8970 H       1  UNL1        0.0618
     46 H          -1.9146    4.3012   -1.4053 H       1  UNL1        0.0624
     47 H          -1.5548   -0.6069    1.9364 H       1  UNL1        0.0566
     48 H          -3.8084   -1.4562    1.2682 H       1  UNL1        0.0289
     49 H          -3.2740   -1.4689   -0.4409 H       1  UNL1        0.0289
     50 H          -1.6278   -3.2435    0.0444 H       1  UNL1        0.0296
     51 H          -3.7137   -4.1193   -0.5918 H       1  UNL1        0.0232
     52 H          -3.2366   -4.9616    0.9102 H       1  UNL1        0.0232
     53 H          -4.5044   -3.6596    1.0097 H       1  UNL1        0.0232
     54 H          -1.3225   -2.5218    2.5835 H       1  UNL1        0.0232
     55 H          -1.3451   -4.2383    2.0837 H       1  UNL1        0.0232
     56 H          -2.8307   -3.5619    2.7854 H       1  UNL1        0.0232
     57 H           3.8126   -1.8380    0.7469 H       1  UNL1        0.0622
     58 H           5.7534   -0.3788    1.3041 H       1  UNL1        0.0654
@<TRIPOS>BOND
     1     1     2    1
     2     2     3    1
     3     3     4   ar
     4     4     5   ar
     5     5     6   ar
     6     6     7    1
     7     7     8    1
     8     8     9   am
     9     9    10    2
    10     9    11    1
    11    11    12    1
    12    12    13    1
    13    13    14   ar
    14    14    15   ar
    15    15    16   ar
    16    16    17   ar
    17    17    18   ar
    18    18    19   ar
    19    19    20   ar
    20    20    21   ar
    21    14    22    1
    22    22    23    1
    23    23    24    1
    24    24    25    1
    25    24    26    1
    26    22    27    1
    27    27    28   am
    28    28    29    2
    29     6    30   ar
    30    30    31   ar
    31    31     3   ar
    32    28     8   am
    33    27    11    1
    34    21    13   ar
    35    21    16   ar
    36     1    32    1
    37     1    33    1
    38     1    34    1
    39     4    35    1
    40     5    36    1
    41     7    37    1
    42     7    38    1
    43    11    39    1
    44    12    40    1
    45    12    41    1
    46    15    42    1
    47    17    43    1
    48    18    44    1
    49    19    45    1
    50    20    46    1
    51    22    47    1
    52    23    48    1
    53    23    49    1
    54    24    50    1
    55    25    51    1
    56    25    52    1
    57    25    53    1
    58    26    54    1
    59    26    55    1
    60    26    56    1
    61    30    57    1
    62    31    58    1
@<TRIPOS>MOLECULE
51345625
 52 57 0 0 0
SMALL
GASTEIGER

@<TRIPOS>ATOM
      1 O           1.9486    2.0169   -1.8617 O.2     1  UNL1       -0.2727
      2 C           1.5350    1.2054   -0.9999 C.2     1  UNL1        0.2483
      3 C           0.1110    0.8288   -0.8366 C.3     1  UNL1        0.1096
      4 C          -0.8235    2.0446   -0.9143 C.3     1  UNL1        0.0020
      5 C          -2.1846    1.4726   -0.8033 C.ar    1  UNL1       -0.0147
      6 C          -2.4333    0.5801    0.2148 C.ar    1  UNL1        0.0456
      7 N          -3.7217    0.1920    0.1125 N.ar    1  UNL1       -0.3560
      8 C          -4.3308    0.7843   -0.9202 C.ar    1  UNL1        0.0470
      9 C          -5.5798    0.7768   -1.4871 C.ar    1  UNL1       -0.0378
     10 C          -5.9047    1.5311   -2.5940 C.ar    1  UNL1       -0.0598
     11 C          -4.9415    2.3336   -3.1677 C.ar    1  UNL1       -0.0611
     12 C          -3.6745    2.3649   -2.6228 C.ar    1  UNL1       -0.0523
     13 C          -3.3576    1.6019   -1.5086 C.ar    1  UNL1        0.0032
     14 C          -1.3186    0.2665    1.1405 C.3     1  UNL1        0.0938
     15 C          -1.5342   -1.0159    1.8545 C.ar    1  UNL1       -0.0210
     16 C          -2.0671   -1.0119    3.1252 C.ar    1  UNL1       -0.0537
     17 C          -2.2899   -2.1621    3.8359 C.ar    1  UNL1       -0.0261
     18 C          -1.9750   -3.3717    3.2726 C.ar    1  UNL1        0.1234
     19 F          -2.1831   -4.5286    3.9489 F       1  UNL1       -0.2055
     20 C          -1.4379   -3.3725    1.9913 C.ar    1  UNL1       -0.0261
     21 C          -1.2193   -2.2291    1.2918 C.ar    1  UNL1       -0.0537
     22 N          -0.0325    0.3133    0.4913 N.am    1  UNL1       -0.2605
     23 C           1.2787   -0.0659    0.8923 C.2     1  UNL1        0.3170
     24 O           1.5422   -0.7717    1.8949 O.2     1  UNL1       -0.2516
     25 N           2.2455    0.4840   -0.0267 N.am    1  UNL1       -0.1925
     26 C           3.6663    0.3524   -0.0009 C.ar    1  UNL1        0.0460
     27 C           4.4411    1.2745    0.6852 C.ar    1  UNL1       -0.0398
     28 C           5.8096    1.1249    0.6946 C.ar    1  UNL1       -0.0595
     29 C           6.4335    0.0851    0.0419 C.ar    1  UNL1       -0.0500
     30 C           5.6890   -0.8465   -0.6483 C.ar    1  UNL1        0.0566
     31 C           6.3242   -1.9801   -1.3635 C.3     1  UNL1        0.4175
     32 F           7.6222   -1.7109   -1.7304 F       1  UNL1       -0.1659
     33 F           5.5677   -2.2217   -2.4932 F       1  UNL1       -0.1659
     34 F           6.2828   -3.1047   -0.5656 F       1  UNL1       -0.1659
     35 C           4.3135   -0.6794   -0.6464 C.ar    1  UNL1       -0.0282
     36 H          -0.2372    0.1100   -1.5804 H       1  UNL1        0.0601
     37 H          -0.6648    2.6166   -1.8291 H       1  UNL1        0.0337
     38 H          -0.6126    2.6449    0.0081 H       1  UNL1        0.0337
     39 H          -4.1701   -0.4789    0.7566 H       1  UNL1        0.1657
     40 H          -6.3508    0.1556   -1.0547 H       1  UNL1        0.0638
     41 H          -6.9117    1.5115   -3.0339 H       1  UNL1        0.0618
     42 H          -5.1338    2.9490   -4.0373 H       1  UNL1        0.0618
     43 H          -2.8811    2.9943   -3.0554 H       1  UNL1        0.0624
     44 H          -1.3856    1.0752    1.9346 H       1  UNL1        0.0616
     45 H          -2.3399   -0.0751    3.6304 H       1  UNL1        0.0622
     46 H          -2.7061   -2.1284    4.8235 H       1  UNL1        0.0646
     47 H          -1.1734   -4.3250    1.5083 H       1  UNL1        0.0646
     48 H          -0.7990   -2.1953    0.2836 H       1  UNL1        0.0622
     49 H           3.9460    2.0954    1.2004 H       1  UNL1        0.0636
     50 H           6.3999    1.8679    1.2448 H       1  UNL1        0.0618
     51 H           7.5078    0.0208    0.0852 H       1  UNL1        0.0623
     52 H           3.7110   -1.3993   -1.1820 H       1  UNL1        0.0642
@<TRIPOS>BOND
     1     1     2    2
     2     2     3    1
     3     3     4    1
     4     4     5    1
     5     5     6   ar
     6     6     7   ar
     7     7     8   ar
     8     8     9   ar
     9     9    10   ar
    10    10    11   ar
    11    11    12   ar
    12    12    13   ar
    13     6    14    1
    14    14    15    1
    15    15    16   ar
    16    16    17   ar
    17    17    18   ar
    18    18    19    1
    19    18    20   ar
    20    20    21   ar
    21    14    22    1
    22    22    23   am
    23    23    24    2
    24    23    25   am
    25    25    26    1
    26    26    27   ar
    27    27    28   ar
    28    28    29   ar
    29    29    30   ar
    30    30    31    1
    31    31    32    1
    32    31    33    1
    33    31    34    1
    34    30    35   ar
    35    25     2   am
    36    35    26   ar
    37    22     3    1
    38    13     5   ar
    39    21    15   ar
    40    13     8   ar
    41     3    36    1
    42     4    37    1
    43     4    38    1
    44     7    39    1
    45     9    40    1
    46    10    41    1
    47    11    42    1
    48    12    43    1
    49    14    44    1
    50    16    45    1
    51    17    46    1
    52    20    47    1
    53    21    48    1
    54    27    49    1
    55    28    50    1
    56    29    51    1
    57    35    52    1
@<TRIPOS>MOLECULE
50934294
 42 45 0 0 0
SMALL
GASTEIGER

@<TRIPOS>ATOM
      1 O           0.9768    1.7421    0.2418 O.2     1  UNL1       -0.2523
      2 C           1.0205    0.5061    0.0312 C.2     1  UNL1        0.3072
      3 N           2.1891   -0.0847   -0.4437 N.am    1  UNL1       -0.2693
      4 C           3.4068    0.5827   -0.7222 C.ar    1  UNL1        0.0348
      5 C           3.6536    1.9189   -0.5598 C.ar    1  UNL1       -0.0404
      6 C           4.8974    2.4989   -0.8585 C.ar    1  UNL1       -0.0600
      7 C           5.9448    1.7503   -1.3351 C.ar    1  UNL1       -0.0616
      8 C           5.7138    0.4068   -1.5039 C.ar    1  UNL1       -0.0600
      9 C           4.4950   -0.1585   -1.2105 C.ar    1  UNL1       -0.0404
     10 N          -0.1334   -0.3181    0.2772 N.am    1  UNL1       -0.2740
     11 C          -0.0715   -1.7303    0.0530 C.3     1  UNL1        0.0215
     12 C          -1.1789   -2.4571    0.7654 C.3     1  UNL1       -0.0052
     13 C          -1.5275   -1.7130    2.0034 C.ar    1  UNL1       -0.0035
     14 S          -1.9005   -2.2463    3.6385 S.2     1  UNL1       -0.1012
     15 C          -2.1841   -0.6431    4.3246 C.ar    1  UNL1       -0.0237
     16 C          -1.9739    0.1886    3.2554 C.ar    1  UNL1       -0.0492
     17 C          -1.6402   -0.3554    2.0807 C.ar    1  UNL1       -0.0123
     18 C          -1.3262    0.3483    0.7547 C.3     1  UNL1        0.0787
     19 C          -2.4429    0.2531   -0.1974 C.ar    1  UNL1       -0.0212
     20 C          -2.1839    0.5028   -1.5533 C.ar    1  UNL1       -0.0564
     21 C          -3.1384    0.4496   -2.5249 C.ar    1  UNL1       -0.0601
     22 C          -4.4362    0.1345   -2.1941 C.ar    1  UNL1       -0.0434
     23 C          -4.6994   -0.1147   -0.8542 C.ar    1  UNL1        0.0413
     24 CL         -6.3494   -0.5120   -0.4213 Cl      1  UNL1       -0.0835
     25 C          -3.7447   -0.0623    0.1312 C.ar    1  UNL1       -0.0381
     26 H           2.1666   -1.1484   -0.6222 H       1  UNL1        0.1564
     27 H           2.8708    2.5693   -0.1816 H       1  UNL1        0.0636
     28 H           5.0285    3.5683   -0.7065 H       1  UNL1        0.0618
     29 H           6.9035    2.1953   -1.5647 H       1  UNL1        0.0618
     30 H           6.5387   -0.1945   -1.8838 H       1  UNL1        0.0618
     31 H           4.3239   -1.2285   -1.3498 H       1  UNL1        0.0636
     32 H           0.8644   -2.1945    0.4236 H       1  UNL1        0.0469
     33 H          -0.1845   -1.9585   -1.0398 H       1  UNL1        0.0469
     34 H          -2.0996   -2.5374    0.1385 H       1  UNL1        0.0334
     35 H          -0.9137   -3.4896    1.0889 H       1  UNL1        0.0334
     36 H          -2.4599   -0.4023    5.3674 H       1  UNL1        0.0693
     37 H          -2.0926    1.2858    3.4222 H       1  UNL1        0.0626
     38 H          -1.1059    1.4080    0.9292 H       1  UNL1        0.0602
     39 H          -1.1680    0.7515   -1.8414 H       1  UNL1        0.0621
     40 H          -2.8564    0.6613   -3.5732 H       1  UNL1        0.0618
     41 H          -5.2023    0.0901   -2.9582 H       1  UNL1        0.0632
     42 H          -3.9801   -0.2631    1.1736 H       1  UNL1        0.0635
@<TRIPOS>BOND
     1     1     2    2
     2     2     3   am
     3     3     4    1
     4     4     5   ar
     5     5     6   ar
     6     6     7   ar
     7     7     8   ar
     8     8     9   ar
     9     2    10   am
    10    10    11    1
    11    11    12    1
    12    12    13    1
    13    13    14   ar
    14    14    15   ar
    15    15    16   ar
    16    16    17   ar
    17    17    18    1
    18    18    19    1
    19    19    20   ar
    20    20    21   ar
    21    21    22   ar
    22    22    23   ar
    23    23    24    1
    24    23    25   ar
    25     9     4   ar
    26    18    10    1
    27    25    19   ar
    28    17    13   ar
    29     3    26    1
    30     5    27    1
    31     6    28    1
    32     7    29    1
    33     8    30    1
    34     9    31    1
    35    11    32    1
    36    11    33    1
    37    12    34    1
    38    12    35    1
    39    15    36    1
    40    16    37    1
    41    18    38    1
    42    20    39    1
    43    21    40    1
    44    22    41    1
    45    25    42    1
@<TRIPOS>MOLECULE
66601095
 45 47 0 0 0
SMALL
GASTEIGER

@<TRIPOS>ATOM
      1 O           6.9736    0.9940   -0.9500 O.2     1  UNL1       -0.2451
      2 C           6.1983    0.1879   -1.5008 C.2     1  UNL1        0.3368
      3 O           6.5842   -0.4208   -2.6729 O.3     1  UNL1       -0.4771
      4 C           4.8910   -0.1249   -0.9312 C.ar    1  UNL1        0.0589
      5 C           4.4947    0.4791    0.2420 C.ar    1  UNL1       -0.0459
      6 C           3.2680    0.1922    0.7859 C.ar    1  UNL1       -0.0343
      7 C           2.3777   -0.6894    0.2169 C.ar    1  UNL1        0.1088
      8 S           0.8230   -1.0793    0.8688 S.O2    1  UNL1        0.0762
      9 O           0.9504   -1.0291    2.3714 O.2     1  UNL1       -0.1497
     10 O           0.4940   -2.4973    0.5167 O.2     1  UNL1       -0.1497
     11 N          -0.4301   -0.0601    0.3049 N.pl3   1  UNL1       -0.1815
     12 C          -0.7075   -0.0458   -1.1179 C.3     1  UNL1        0.0615
     13 C          -1.7265   -1.0276   -1.5392 C.ar    1  UNL1       -0.0283
     14 C          -3.0815   -0.6801   -1.4902 C.ar    1  UNL1       -0.0570
     15 C          -4.0578   -1.5699   -1.8862 C.ar    1  UNL1       -0.0615
     16 C          -3.6645   -2.8130   -2.3325 C.ar    1  UNL1       -0.0617
     17 C          -2.3350   -3.1744   -2.3884 C.ar    1  UNL1       -0.0615
     18 C          -1.3588   -2.2753   -1.9891 C.ar    1  UNL1       -0.0570
     19 C          -1.2063    0.7669    1.1587 C.ar    1  UNL1        0.1408
     20 C          -0.8392    2.0564    1.4572 C.ar    1  UNL1       -0.0197
     21 C          -1.6202    2.8547    2.3022 C.ar    1  UNL1       -0.0454
     22 C          -2.7623    2.3383    2.8341 C.ar    1  UNL1        0.0730
     23 C          -3.5860    3.1962    3.7319 C.3     1  UNL1        0.4188
     24 F          -4.6876    2.5437    4.1976 F       1  UNL1       -0.1658
     25 F          -4.0344    4.3351    3.0535 F       1  UNL1       -0.1658
     26 F          -2.8366    3.6650    4.7998 F       1  UNL1       -0.1658
     27 C          -3.1112    1.0456    2.5224 C.ar    1  UNL1        0.0414
     28 N          -2.3388    0.3090    1.7088 N.ar    1  UNL1       -0.2383
     29 C           2.7807   -1.2907   -0.9576 C.ar    1  UNL1       -0.0343
     30 C           4.0224   -1.0143   -1.5284 C.ar    1  UNL1       -0.0459
     31 H           7.3345   -0.0794   -3.2537 H       1  UNL1        0.2954
     32 H           5.1917    1.1813    0.7047 H       1  UNL1        0.0626
     33 H           2.9664    0.6787    1.7171 H       1  UNL1        0.0637
     34 H           0.2407   -0.1472   -1.7082 H       1  UNL1        0.0532
     35 H          -1.0769    0.9896   -1.3757 H       1  UNL1        0.0532
     36 H          -3.4154    0.2885   -1.1441 H       1  UNL1        0.0621
     37 H          -5.1217   -1.3108   -1.8529 H       1  UNL1        0.0618
     38 H          -4.4443   -3.5190   -2.6468 H       1  UNL1        0.0618
     39 H          -2.0600   -4.1641   -2.7461 H       1  UNL1        0.0618
     40 H          -0.3366   -2.6157   -2.0627 H       1  UNL1        0.0621
     41 H           0.0709    2.4882    1.0418 H       1  UNL1        0.0652
     42 H          -1.3222    3.8775    2.5345 H       1  UNL1        0.0625
     43 H          -4.0146    0.6377    2.9434 H       1  UNL1        0.0836
     44 H           2.1616   -1.9984   -1.4889 H       1  UNL1        0.0637
     45 H           4.3521   -1.4794   -2.4508 H       1  UNL1        0.0626
@<TRIPOS>BOND
     1     1     2    2
     2     2     3    1
     3     2     4    1
     4     4     5   ar
     5     5     6   ar
     6     6     7   ar
     7     7     8    1
     8     8     9    2
     9     8    10    2
    10     8    11    1
    11    11    12    1
    12    12    13    1
    13    13    14   ar
    14    14    15   ar
    15    15    16   ar
    16    16    17   ar
    17    17    18   ar
    18    11    19    1
    19    19    20   ar
    20    20    21   ar
    21    21    22   ar
    22    22    23    1
    23    23    24    1
    24    23    25    1
    25    23    26    1
    26    22    27   ar
    27    27    28   ar
    28     7    29   ar
    29    29    30   ar
    30    30     4   ar
    31    18    13   ar
    32    28    19   ar
    33     3    31    1
    34     5    32    1
    35     6    33    1
    36    12    34    1
    37    12    35    1
    38    14    36    1
    39    15    37    1
    40    16    38    1
    41    17    39    1
    42    18    40    1
    43    20    41    1
    44    21    42    1
    45    27    43    1
    46    29    44    1
    47    30    45    1
@<TRIPOS>MOLECULE
CHEMBL5270316
 60 62 0 0 0
SMALL
GASTEIGER

@<TRIPOS>ATOM
      1 C           1.6228   -3.0576    1.5632 C.3     1  UNL1        0.0817
      2 O           0.8556   -1.8621    1.7516 O.3     1  UNL1       -0.4668
      3 C          -0.3417   -1.6878    1.0693 C.2     1  UNL1        0.3259
      4 O          -0.6966   -2.6107    0.3045 O.2     1  UNL1       -0.2490
      5 C          -1.1477   -0.4876    1.2351 C.3     1  UNL1        0.1250
      6 N          -2.3624   -0.5073    0.4996 N.3     1  UNL1       -0.2986
      7 C          -3.2475   -1.5182    1.0208 C.3     1  UNL1        0.0220
      8 C          -4.5207   -1.4977    0.2326 C.ar    1  UNL1       -0.0336
      9 C          -5.5828   -0.7121    0.6050 C.ar    1  UNL1       -0.0573
     10 C          -6.7484   -0.7303   -0.1688 C.ar    1  UNL1       -0.0615
     11 C          -6.8418   -1.5336   -1.3079 C.ar    1  UNL1       -0.0617
     12 C          -5.7661   -2.3118   -1.6617 C.ar    1  UNL1       -0.0615
     13 C          -4.6039   -2.2903   -0.8857 C.ar    1  UNL1       -0.0573
     14 C          -0.3055    0.7577    0.9117 C.3     1  UNL1        0.0559
     15 C          -1.1730    1.9804    1.0943 C.3     1  UNL1       -0.0071
     16 C          -0.4564    3.2347    0.8074 C.ar    1  UNL1       -0.0455
     17 C           0.2252    3.9110    1.7998 C.ar    1  UNL1       -0.0585
     18 C           0.8956    5.0943    1.5075 C.ar    1  UNL1       -0.0615
     19 C           0.9085    5.6335    0.2378 C.ar    1  UNL1       -0.0617
     20 C           0.2265    4.9555   -0.7518 C.ar    1  UNL1       -0.0615
     21 C          -0.4507    3.7643   -0.4666 C.ar    1  UNL1       -0.0585
     22 N           0.3012    0.6816   -0.3758 N.am    1  UNL1       -0.2759
     23 C           1.7203    0.6363   -0.6122 C.2     1  UNL1        0.4009
     24 O           2.4376    0.6682    0.4138 O.2     1  UNL1       -0.2265
     25 O           2.2452    0.5631   -1.8796 O.3     1  UNL1       -0.4456
     26 C           3.6007    0.5172   -2.1469 C.3     1  UNL1        0.1191
     27 C           4.3513   -0.6094   -1.5845 C.ar    1  UNL1       -0.0103
     28 C           4.4206   -1.8550   -2.2019 C.ar    1  UNL1       -0.0554
     29 C           5.1415   -2.9107   -1.6869 C.ar    1  UNL1       -0.0614
     30 C           5.8326   -2.7434   -0.5057 C.ar    1  UNL1       -0.0617
     31 C           5.7866   -1.5235    0.1326 C.ar    1  UNL1       -0.0614
     32 C           5.0446   -0.4663   -0.4151 C.ar    1  UNL1       -0.0554
     33 H           1.7960   -3.2184    0.4642 H       1  UNL1        0.0661
     34 H           2.5711   -2.9543    2.1142 H       1  UNL1        0.0661
     35 H           0.9820   -3.8862    1.9409 H       1  UNL1        0.0661
     36 H          -1.4037   -0.3612    2.3195 H       1  UNL1        0.0595
     37 H          -2.2263   -0.7111   -0.5146 H       1  UNL1        0.1231
     38 H          -3.4588   -1.3709    2.1065 H       1  UNL1        0.0474
     39 H          -2.8737   -2.5542    0.9438 H       1  UNL1        0.0474
     40 H          -5.4889   -0.1043    1.4818 H       1  UNL1        0.0621
     41 H          -7.5832   -0.1133    0.1234 H       1  UNL1        0.0618
     42 H          -7.7737   -1.4936   -1.8533 H       1  UNL1        0.0618
     43 H          -5.8406   -2.9307   -2.5409 H       1  UNL1        0.0618
     44 H          -3.7805   -2.9034   -1.1799 H       1  UNL1        0.0621
     45 H           0.4953    0.7740    1.6798 H       1  UNL1        0.0523
     46 H          -1.5460    2.0252    2.1383 H       1  UNL1        0.0332
     47 H          -2.0793    1.8462    0.4544 H       1  UNL1        0.0332
     48 H           0.2231    3.4931    2.8151 H       1  UNL1        0.0620
     49 H           1.4203    5.6028    2.3012 H       1  UNL1        0.0618
     50 H           1.4477    6.5594    0.0659 H       1  UNL1        0.0618
     51 H           0.2252    5.3631   -1.7547 H       1  UNL1        0.0618
     52 H          -0.9753    3.2460   -1.2359 H       1  UNL1        0.0620
     53 H          -0.3011    0.6554   -1.2256 H       1  UNL1        0.1524
     54 H           3.7733    0.5301   -3.2641 H       1  UNL1        0.0749
     55 H           4.0997    1.4548   -1.7691 H       1  UNL1        0.0749
     56 H           3.8894   -2.0247   -3.1338 H       1  UNL1        0.0621
     57 H           5.1985   -3.8806   -2.1629 H       1  UNL1        0.0618
     58 H           6.4093   -3.5481   -0.0700 H       1  UNL1        0.0618
     59 H           6.3380   -1.4224    1.0561 H       1  UNL1        0.0618
     60 H           5.0913    0.4447    0.1639 H       1  UNL1        0.0621
@<TRIPOS>BOND
     1     1     2    1
     2     2     3    1
     3     3     4    2
     4     3     5    1
     5     5     6    1
     6     6     7    1
     7     7     8    1
     8     8     9   ar
     9     9    10   ar
    10    10    11   ar
    11    11    12   ar
    12    12    13   ar
    13     5    14    1
    14    14    15    1
    15    15    16    1
    16    16    17   ar
    17    17    18   ar
    18    18    19   ar
    19    19    20   ar
    20    20    21   ar
    21    14    22    1
    22    22    23   am
    23    23    24    2
    24    23    25    1
    25    25    26    1
    26    26    27    1
    27    27    28   ar
    28    28    29   ar
    29    29    30   ar
    30    30    31   ar
    31    31    32   ar
    32    13     8   ar
    33    21    16   ar
    34    32    27   ar
    35     1    33    1
    36     1    34    1
    37     1    35    1
    38     5    36    1
    39     6    37    1
    40     7    38    1
    41     7    39    1
    42     9    40    1
    43    10    41    1
    44    11    42    1
    45    12    43    1
    46    13    44    1
    47    14    45    1
    48    15    46    1
    49    15    47    1
    50    17    48    1
    51    18    49    1
    52    19    50    1
    53    20    51    1
    54    21    52    1
    55    22    53    1
    56    26    54    1
    57    26    55    1
    58    28    56    1
    59    29    57    1
    60    30    58    1
    61    31    59    1
    62    32    60    1
@<TRIPOS>MOLECULE
51345603
 54 57 0 0 0
SMALL
GASTEIGER

@<TRIPOS>ATOM
      1 C          -5.9132    3.5777   -0.7091 C.3     1  UNL1        0.0817
      2 O          -5.2350    2.5644    0.0064 O.3     1  UNL1       -0.4679
      3 C          -3.8641    2.5156    0.0423 C.2     1  UNL1        0.3069
      4 O          -3.1686    3.3674   -0.5565 O.2     1  UNL1       -0.2509
      5 C          -3.2280    1.4167    0.8157 C.3     1  UNL1        0.0467
      6 C          -1.7069    1.4863    0.7488 C.3     1  UNL1       -0.0219
      7 C          -1.1863    0.3302    1.5605 C.3     1  UNL1        0.0494
      8 N           0.2190    0.2008    1.6286 N.3     1  UNL1       -0.2973
      9 C           0.8989   -0.3638    0.5234 C.3     1  UNL1        0.0893
     10 C           1.9245    0.5710   -0.0042 C.2     1  UNL1        0.2307
     11 O           2.0800    1.6739    0.5693 O.2     1  UNL1       -0.2741
     12 N           2.7393    0.2838   -1.1236 N.am    1  UNL1       -0.3099
     13 C           3.7561    1.1572   -1.6719 C.3     1  UNL1        0.0369
     14 C           4.9752    1.0788   -0.8227 C.ar    1  UNL1       -0.0302
     15 C           5.2629    1.9208    0.2186 C.ar    1  UNL1       -0.0544
     16 C           6.4329    1.7596    0.9675 C.ar    1  UNL1       -0.0261
     17 C           7.3298    0.7466    0.6764 C.ar    1  UNL1        0.1234
     18 F           8.4864    0.5608    1.3916 F       1  UNL1       -0.2055
     19 C           7.0600   -0.1039   -0.3596 C.ar    1  UNL1       -0.0261
     20 C           5.9186    0.0749   -1.0690 C.ar    1  UNL1       -0.0544
     21 C           0.0265   -0.9629   -0.5467 C.3     1  UNL1       -0.0014
     22 C          -1.2146   -1.5516    0.0193 C.ar    1  UNL1       -0.0156
     23 C          -1.8268   -0.9074    1.0803 C.ar    1  UNL1        0.0375
     24 N          -2.9291   -1.5715    1.4690 N.ar    1  UNL1       -0.3565
     25 C          -3.0395   -2.6490    0.6639 C.ar    1  UNL1        0.0470
     26 C          -3.9863   -3.6433    0.6419 C.ar    1  UNL1       -0.0378
     27 C          -3.8594   -4.6399   -0.2999 C.ar    1  UNL1       -0.0598
     28 C          -2.8212   -4.6703   -1.2132 C.ar    1  UNL1       -0.0611
     29 C          -1.8633   -3.6655   -1.1920 C.ar    1  UNL1       -0.0523
     30 C          -1.9914   -2.6684   -0.2487 C.ar    1  UNL1        0.0032
     31 H          -5.1751    4.3155   -1.0957 H       1  UNL1        0.0661
     32 H          -6.3884    3.1444   -1.6341 H       1  UNL1        0.0661
     33 H          -6.7045    4.0233   -0.0948 H       1  UNL1        0.0661
     34 H          -3.5144    1.3873    1.8714 H       1  UNL1        0.0378
     35 H          -3.5107    0.4351    0.3518 H       1  UNL1        0.0378
     36 H          -1.4452    1.4374   -0.3193 H       1  UNL1        0.0289
     37 H          -1.4206    2.4653    1.1571 H       1  UNL1        0.0289
     38 H          -1.5347    0.5432    2.6177 H       1  UNL1        0.0525
     39 H           0.7344    0.9878    2.0251 H       1  UNL1        0.1233
     40 H           1.4799   -1.2462    0.9432 H       1  UNL1        0.0560
     41 H           2.5695   -0.6552   -1.5790 H       1  UNL1        0.1491
     42 H           3.9513    0.9599   -2.7367 H       1  UNL1        0.0512
     43 H           3.3805    2.2119   -1.5434 H       1  UNL1        0.0512
     44 H           4.5777    2.7262    0.4629 H       1  UNL1        0.0622
     45 H           6.6384    2.4286    1.7775 H       1  UNL1        0.0646
     46 H           7.7753   -0.9010   -0.5816 H       1  UNL1        0.0646
     47 H           5.6999   -0.5924   -1.8878 H       1  UNL1        0.0622
     48 H          -0.1583   -0.2673   -1.3905 H       1  UNL1        0.0334
     49 H           0.5595   -1.8358   -1.0317 H       1  UNL1        0.0334
     50 H          -3.5561   -1.2855    2.2431 H       1  UNL1        0.1656
     51 H          -4.7994   -3.6036    1.3711 H       1  UNL1        0.0638
     52 H          -4.6257   -5.4284   -0.3047 H       1  UNL1        0.0618
     53 H          -2.7811   -5.4776   -1.9232 H       1  UNL1        0.0618
     54 H          -1.0284   -3.6622   -1.9030 H       1  UNL1        0.0624
@<TRIPOS>BOND
     1     1     2    1
     2     2     3    1
     3     3     4    2
     4     3     5    1
     5     5     6    1
     6     6     7    1
     7     7     8    1
     8     8     9    1
     9     9    10    1
    10    10    11    2
    11    10    12   am
    12    12    13    1
    13    13    14    1
    14    14    15   ar
    15    15    16   ar
    16    16    17   ar
    17    17    18    1
    18    17    19   ar
    19    19    20   ar
    20     9    21    1
    21    21    22    1
    22    22    23   ar
    23    23    24   ar
    24    24    25   ar
    25    25    26   ar
    26    26    27   ar
    27    27    28   ar
    28    28    29   ar
    29    29    30   ar
    30    23     7    1
    31    30    25   ar
    32    20    14   ar
    33    30    22   ar
    34     1    31    1
    35     1    32    1
    36     1    33    1
    37     5    34    1
    38     5    35    1
    39     6    36    1
    40     6    37    1
    41     7    38    1
    42     8    39    1
    43     9    40    1
    44    12    41    1
    45    13    42    1
    46    13    43    1
    47    15    44    1
    48    16    45    1
    49    19    46    1
    50    20    47    1
    51    21    48    1
    52    21    49    1
    53    24    50    1
    54    26    51    1
    55    27    52    1
    56    28    53    1
    57    29    54    1
@<TRIPOS>MOLECULE
CHEMBL3897350
 46 48 0 0 0
SMALL
GASTEIGER

@<TRIPOS>ATOM
      1 N           0.4087   -3.2947    1.2176 N.am    1  UNL1       -0.3275
      2 C           1.0380   -2.2090    1.8899 C.2     1  UNL1        0.2356
      3 O           1.2084   -2.4678    3.1542 O.2     1  UNL1       -0.2736
      4 C           1.4757   -0.9561    1.3380 C.3     1  UNL1        0.1278
      5 C           2.6826   -1.1768    0.4084 C.ar    1  UNL1       -0.0182
      6 C           3.3367   -2.3776    0.3791 C.ar    1  UNL1       -0.0563
      7 C           4.4208   -2.5931   -0.4754 C.ar    1  UNL1       -0.0614
      8 C           4.8338   -1.5793   -1.2966 C.ar    1  UNL1       -0.0617
      9 C           4.1643   -0.3694   -1.2578 C.ar    1  UNL1       -0.0614
     10 C           3.0815   -0.1470   -0.4091 C.ar    1  UNL1       -0.0563
     11 N           0.5136   -0.1636    0.5417 N.am    1  UNL1       -0.2776
     12 C          -0.2435   -0.6622   -0.5399 C.3     1  UNL1        0.0411
     13 C          -1.7176   -0.6583   -0.4319 C.ar    1  UNL1       -0.0287
     14 C          -2.4803    0.2057   -1.2501 C.ar    1  UNL1       -0.0570
     15 C          -3.8419    0.2868   -1.1913 C.ar    1  UNL1       -0.0601
     16 C          -4.5607   -0.4887   -0.3082 C.ar    1  UNL1       -0.0434
     17 C          -3.8530   -1.3403    0.5041 C.ar    1  UNL1        0.0413
     18 CL         -4.7544   -2.3319    1.6226 Cl      1  UNL1       -0.0835
     19 C          -2.4542   -1.4190    0.4380 C.ar    1  UNL1       -0.0387
     20 C           0.4552    1.2088    0.9054 C.2     1  UNL1        0.2478
     21 O           1.2485    1.5416    1.8877 O.2     1  UNL1       -0.2699
     22 C          -0.3440    2.2542    0.3440 C.ar    1  UNL1        0.0369
     23 C          -1.3132    2.8612    1.1349 C.ar    1  UNL1       -0.0496
     24 C          -2.1034    3.8886    0.7181 C.ar    1  UNL1       -0.0610
     25 C          -1.9614    4.3805   -0.5565 C.ar    1  UNL1       -0.0617
     26 C          -1.0121    3.8132   -1.3877 C.ar    1  UNL1       -0.0610
     27 C          -0.2114    2.7522   -0.9275 C.ar    1  UNL1       -0.0496
     28 H          -0.4244   -3.7845    1.6024 H       1  UNL1        0.1450
     29 H           0.7632   -3.6653    0.3006 H       1  UNL1        0.1450
     30 H           1.9387   -0.3237    2.1289 H       1  UNL1        0.0648
     31 H           3.0630   -3.2130    1.0097 H       1  UNL1        0.0621
     32 H           4.9461   -3.5353   -0.5107 H       1  UNL1        0.0618
     33 H           5.6866   -1.7261   -1.9801 H       1  UNL1        0.0618
     34 H           4.5186    0.4027   -1.9239 H       1  UNL1        0.0618
     35 H           2.5938    0.8406   -0.4266 H       1  UNL1        0.0621
     36 H           0.0226   -1.7218   -0.8162 H       1  UNL1        0.0514
     37 H           0.0252   -0.0503   -1.4615 H       1  UNL1        0.0514
     38 H          -1.9123    0.7931   -1.9561 H       1  UNL1        0.0621
     39 H          -4.3739    0.9665   -1.8462 H       1  UNL1        0.0618
     40 H          -5.6530   -0.4223   -0.2654 H       1  UNL1        0.0632
     41 H          -1.9679   -2.0987    1.1040 H       1  UNL1        0.0635
     42 H          -1.4288    2.4906    2.1386 H       1  UNL1        0.0625
     43 H          -2.8310    4.3123    1.3874 H       1  UNL1        0.0618
     44 H          -2.5739    5.2118   -0.9388 H       1  UNL1        0.0618
     45 H          -0.9252    4.2236   -2.3819 H       1  UNL1        0.0618
     46 H           0.5159    2.3418   -1.6150 H       1  UNL1        0.0625
@<TRIPOS>BOND
     1     1     2   am
     2     2     3    2
     3     2     4    1
     4     4     5    1
     5     5     6   ar
     6     6     7   ar
     7     7     8   ar
     8     8     9   ar
     9     9    10   ar
    10     4    11    1
    11    11    12    1
    12    12    13    1
    13    13    14   ar
    14    14    15   ar
    15    15    16   ar
    16    16    17   ar
    17    17    18    1
    18    17    19   ar
    19    11    20   am
    20    20    21    2
    21    20    22    1
    22    22    23   ar
    23    23    24   ar
    24    24    25   ar
    25    25    26   ar
    26    26    27   ar
    27    10     5   ar
    28    19    13   ar
    29    27    22   ar
    30     1    28    1
    31     1    29    1
    32     4    30    1
    33     6    31    1
    34     7    32    1
    35     8    33    1
    36     9    34    1
    37    10    35    1
    38    12    36    1
    39    12    37    1
    40    14    38    1
    41    15    39    1
    42    16    40    1
    43    19    41    1
    44    23    42    1
    45    24    43    1
    46    25    44    1
    47    26    45    1
    48    27    46    1
@<TRIPOS>MOLECULE
51135386
 52 55 0 0 0
SMALL
GASTEIGER

@<TRIPOS>ATOM
      1 O          -3.3995   -3.5839    3.7161 O.2     1  UNL1        0.0414
      2 N          -3.0686   -3.6975    2.5255 N.pl3   1  UNL1        0.0796
      3 O          -2.9935   -4.9389    1.9683 O.co2   1  UNL1       -0.5760
      4 C          -2.7628   -2.5596    1.7223 C.ar    1  UNL1        0.2732
      5 C          -2.3970   -2.7067    0.4016 C.ar    1  UNL1        0.0159
      6 C          -2.1076   -1.5816   -0.3363 C.ar    1  UNL1       -0.0509
      7 C          -2.1687   -0.2964    0.1972 C.ar    1  UNL1       -0.0329
      8 C          -1.8268    0.8363   -0.6865 C.3     1  UNL1        0.0244
      9 N          -0.4395    1.1649   -0.6603 N.3     1  UNL1       -0.2937
     10 C           0.4283    0.0886   -0.9557 C.3     1  UNL1        0.0036
     11 C           1.8887    0.4038   -1.0146 C.3     1  UNL1       -0.0129
     12 C           2.6363   -0.8480   -1.3009 C.ar    1  UNL1       -0.0212
     13 C           3.1877   -1.3230   -2.4689 C.ar    1  UNL1        0.0059
     14 N           3.7658   -2.5299   -2.2364 N.ar    1  UNL1       -0.3604
     15 C           3.6143   -2.8672   -0.9519 C.ar    1  UNL1        0.0467
     16 C           4.0250   -3.9837   -0.2388 C.ar    1  UNL1       -0.0378
     17 C           3.7192   -4.0507    1.1060 C.ar    1  UNL1       -0.0598
     18 C           3.0216   -3.0347    1.7342 C.ar    1  UNL1       -0.0611
     19 C           2.6342   -1.9505    0.9959 C.ar    1  UNL1       -0.0523
     20 C           2.9140   -1.8356   -0.3481 C.ar    1  UNL1        0.0029
     21 C          -0.1677    2.4180   -1.2602 C.3     1  UNL1        0.0244
     22 C          -0.7907    3.5865   -0.5980 C.ar    1  UNL1       -0.0334
     23 C          -2.0302    4.0374   -0.9942 C.ar    1  UNL1       -0.0573
     24 C          -2.6400    5.1295   -0.4029 C.ar    1  UNL1       -0.0615
     25 C          -2.0193    5.8282    0.6307 C.ar    1  UNL1       -0.0617
     26 C          -0.7836    5.3781    1.0255 C.ar    1  UNL1       -0.0615
     27 C          -0.1876    4.2943    0.4326 C.ar    1  UNL1       -0.0573
     28 C          -2.5348   -0.1752    1.5112 C.ar    1  UNL1       -0.0509
     29 C          -2.8355   -1.2992    2.2890 C.ar    1  UNL1        0.0159
     30 H          -2.3434   -3.7104   -0.0325 H       1  UNL1        0.0685
     31 H          -1.8266   -1.7360   -1.3697 H       1  UNL1        0.0623
     32 H          -2.4050    1.7060   -0.3004 H       1  UNL1        0.0476
     33 H          -2.1275    0.5825   -1.7321 H       1  UNL1        0.0476
     34 H           0.1060   -0.4356   -1.8940 H       1  UNL1        0.0430
     35 H           0.3055   -0.6938   -0.1516 H       1  UNL1        0.0430
     36 H           2.0440    1.0622   -1.9048 H       1  UNL1        0.0326
     37 H           2.1994    0.8766   -0.0757 H       1  UNL1        0.0326
     38 H           3.1515   -0.7986   -3.4107 H       1  UNL1        0.0810
     39 H           4.2441   -3.0758   -2.9828 H       1  UNL1        0.1653
     40 H           4.5699   -4.7904   -0.6971 H       1  UNL1        0.0638
     41 H           4.0165   -4.8975    1.7116 H       1  UNL1        0.0618
     42 H           2.7756   -3.0715    2.7814 H       1  UNL1        0.0618
     43 H           2.0846   -1.1243    1.4455 H       1  UNL1        0.0624
     44 H          -0.4895    2.3571   -2.3395 H       1  UNL1        0.0476
     45 H           0.9276    2.6538   -1.3142 H       1  UNL1        0.0476
     46 H          -2.6097    3.5629   -1.8002 H       1  UNL1        0.0621
     47 H          -3.6119    5.4919   -0.7061 H       1  UNL1        0.0618
     48 H          -2.4926    6.6847    1.0991 H       1  UNL1        0.0618
     49 H          -0.2782    5.8928    1.8191 H       1  UNL1        0.0618
     50 H           0.7972    3.9536    0.7646 H       1  UNL1        0.0621
     51 H          -2.5931    0.8054    1.9554 H       1  UNL1        0.0623
     52 H          -3.1260   -1.1986    3.3325 H       1  UNL1        0.0685
@<TRIPOS>UNITY_ATOM_ATTR
2 1
charge 1
3 1
charge -1
@<TRIPOS>BOND
     1     1     2    2
     2     2     3    1
     3     2     4    1
     4     4     5   ar
     5     5     6   ar
     6     6     7   ar
     7     7     8    1
     8     8     9    1
     9     9    10    1
    10    10    11    1
    11    11    12    1
    12    12    13   ar
    13    13    14   ar
    14    14    15   ar
    15    15    16   ar
    16    16    17   ar
    17    17    18   ar
    18    18    19   ar
    19    19    20   ar
    20     9    21    1
    21    21    22    1
    22    22    23   ar
    23    23    24   ar
    24    24    25   ar
    25    25    26   ar
    26    26    27   ar
    27     7    28   ar
    28    28    29   ar
    29    29     4   ar
    30    20    12   ar
    31    27    22   ar
    32    20    15   ar
    33     5    30    1
    34     6    31    1
    35     8    32    1
    36     8    33    1
    37    10    34    1
    38    10    35    1
    39    11    36    1
    40    11    37    1
    41    13    38    1
    42    14    39    1
    43    16    40    1
    44    17    41    1
    45    18    42    1
    46    19    43    1
    47    21    44    1
    48    21    45    1
    49    23    46    1
    50    24    47    1
    51    25    48    1
    52    26    49    1
    53    27    50    1
    54    28    51    1
    55    29    52    1
@<TRIPOS>MOLECULE
CHEMBL4208555
 67 70 0 0 0
SMALL
GASTEIGER

@<TRIPOS>ATOM
      1 O           0.7303   -1.1855    1.0243 O.2     1  UNL1       -0.2748
      2 C           1.4068   -0.3139    0.4390 C.2     1  UNL1        0.2236
      3 N           0.8573    0.9562    0.2065 N.am    1  UNL1       -0.3131
      4 C          -0.4671    1.3618    0.5893 C.3     1  UNL1        0.0275
      5 C          -1.5967    0.5993   -0.0172 C.3     1  UNL1        0.0299
      6 C          -1.5729    0.6904   -1.5039 C.3     1  UNL1       -0.0106
      7 C          -1.7044    2.1170   -1.8975 C.ar    1  UNL1       -0.0458
      8 C          -0.6797    2.9775   -2.1360 C.ar    1  UNL1       -0.0585
      9 C          -0.9144    4.3105   -2.4940 C.ar    1  UNL1       -0.0615
     10 C          -2.1947    4.8014   -2.6185 C.ar    1  UNL1       -0.0617
     11 C          -3.2325    3.9493   -2.3825 C.ar    1  UNL1       -0.0615
     12 C          -2.9922    2.6544   -2.0347 C.ar    1  UNL1       -0.0585
     13 N          -1.8136   -0.6379    0.5843 N.3     1  UNL1       -0.2974
     14 C          -2.2967   -0.6775    1.9151 C.3     1  UNL1        0.0021
     15 C          -3.7328   -1.1314    2.0660 C.3     1  UNL1       -0.0026
     16 C          -3.9605   -2.4040    1.3235 C.3     1  UNL1        0.1626
     17 O          -3.2948   -3.4554    1.9082 O.3     1  UNL1       -0.3796
     18 C          -5.4588   -2.7094    1.3876 C.3     1  UNL1        0.4183
     19 F          -5.8657   -2.8475    2.7032 F       1  UNL1       -0.1677
     20 F          -5.7156   -3.8364    0.6486 F       1  UNL1       -0.1677
     21 F          -6.1216   -1.6195    0.8460 F       1  UNL1       -0.1677
     22 C          -3.5950   -2.1890   -0.1279 C.3     1  UNL1       -0.0026
     23 C          -2.1640   -1.7515   -0.2398 C.3     1  UNL1        0.0021
     24 C           2.7911   -0.6796    0.0105 C.3     1  UNL1        0.0718
     25 C           3.8012    0.1913    0.6390 C.ar    1  UNL1       -0.0324
     26 C           3.7215    0.5363    1.9926 C.ar    1  UNL1       -0.0562
     27 C           4.6738    1.3447    2.5765 C.ar    1  UNL1       -0.0431
     28 C           5.7440    1.8477    1.8553 C.ar    1  UNL1        0.0410
     29 CL          6.9342    2.8726    2.6345 Cl      1  UNL1       -0.0835
     30 C           5.8238    1.5091    0.5238 C.ar    1  UNL1       -0.0431
     31 C           4.8530    0.6861   -0.0674 C.ar    1  UNL1       -0.0562
     32 C           3.0648   -2.1062    0.4382 C.3     1  UNL1       -0.0350
     33 C           4.0965   -2.6136   -0.5480 C.3     1  UNL1       -0.0518
     34 C           3.7962   -1.8633   -1.8314 C.3     1  UNL1       -0.0518
     35 C           2.9099   -0.7048   -1.4872 C.3     1  UNL1       -0.0350
     36 H           1.4858    1.6500   -0.2819 H       1  UNL1        0.1488
     37 H          -0.5768    2.4698    0.4378 H       1  UNL1        0.0477
     38 H          -0.5687    1.2670    1.7170 H       1  UNL1        0.0477
     39 H          -2.5303    1.2423    0.2756 H       1  UNL1        0.0481
     40 H          -2.4375    0.1752   -1.9842 H       1  UNL1        0.0329
     41 H          -0.6058    0.3286   -1.8848 H       1  UNL1        0.0329
     42 H           0.3244    2.6504   -2.0607 H       1  UNL1        0.0620
     43 H          -0.0974    4.9868   -2.6814 H       1  UNL1        0.0618
     44 H          -2.4172    5.8259   -2.8933 H       1  UNL1        0.0618
     45 H          -4.2431    4.3080   -2.4731 H       1  UNL1        0.0618
     46 H          -3.8238    1.9939   -1.8515 H       1  UNL1        0.0620
     47 H          -2.1538    0.2992    2.3992 H       1  UNL1        0.0428
     48 H          -1.6818   -1.4070    2.5044 H       1  UNL1        0.0428
     49 H          -3.8616   -1.3622    3.1638 H       1  UNL1        0.0308
     50 H          -4.4539   -0.3349    1.8472 H       1  UNL1        0.0308
     51 H          -3.7904   -4.3104    1.7305 H       1  UNL1        0.2105
     52 H          -3.6895   -3.1739   -0.6326 H       1  UNL1        0.0308
     53 H          -4.3128   -1.4784   -0.5618 H       1  UNL1        0.0308
     54 H          -1.5556   -2.6242    0.1512 H       1  UNL1        0.0428
     55 H          -1.8356   -1.6144   -1.2623 H       1  UNL1        0.0428
     56 H           2.8868    0.1391    2.5385 H       1  UNL1        0.0621
     57 H           4.6140    1.6134    3.6252 H       1  UNL1        0.0632
     58 H           6.6580    1.8999   -0.0431 H       1  UNL1        0.0632
     59 H           5.0253    0.4848   -1.1214 H       1  UNL1        0.0621
     60 H           2.1300   -2.6960    0.4123 H       1  UNL1        0.0278
     61 H           3.4340   -2.1022    1.4779 H       1  UNL1        0.0278
     62 H           5.1052   -2.3827   -0.1594 H       1  UNL1        0.0266
     63 H           3.9605   -3.6950   -0.6465 H       1  UNL1        0.0266
     64 H           3.2678   -2.5895   -2.4860 H       1  UNL1        0.0266
     65 H           4.7655   -1.5811   -2.2894 H       1  UNL1        0.0266
     66 H           1.9012   -0.8981   -1.9465 H       1  UNL1        0.0278
     67 H           3.2467    0.2363   -1.9473 H       1  UNL1        0.0278
@<TRIPOS>BOND
     1     1     2    2
     2     2     3   am
     3     3     4    1
     4     4     5    1
     5     5     6    1
     6     6     7    1
     7     7     8   ar
     8     8     9   ar
     9     9    10   ar
    10    10    11   ar
    11    11    12   ar
    12     5    13    1
    13    13    14    1
    14    14    15    1
    15    15    16    1
    16    16    17    1
    17    16    18    1
    18    18    19    1
    19    18    20    1
    20    18    21    1
    21    16    22    1
    22    22    23    1
    23     2    24    1
    24    24    25    1
    25    25    26   ar
    26    26    27   ar
    27    27    28   ar
    28    28    29    1
    29    28    30   ar
    30    30    31   ar
    31    24    32    1
    32    32    33    1
    33    33    34    1
    34    34    35    1
    35    12     7   ar
    36    23    13    1
    37    35    24    1
    38    31    25   ar
    39     3    36    1
    40     4    37    1
    41     4    38    1
    42     5    39    1
    43     6    40    1
    44     6    41    1
    45     8    42    1
    46     9    43    1
    47    10    44    1
    48    11    45    1
    49    12    46    1
    50    14    47    1
    51    14    48    1
    52    15    49    1
    53    15    50    1
    54    17    51    1
    55    22    52    1
    56    22    53    1
    57    23    54    1
    58    23    55    1
    59    26    56    1
    60    27    57    1
    61    30    58    1
    62    31    59    1
    63    32    60    1
    64    32    61    1
    65    33    62    1
    66    33    63    1
    67    34    64    1
    68    34    65    1
    69    35    66    1
    70    35    67    1
@<TRIPOS>MOLECULE
50333166
 40 43 0 0 0
SMALL
GASTEIGER

@<TRIPOS>ATOM
      1 O          -1.5420    3.0104    0.3457 O.2     1  UNL1       -0.2519
      2 C          -1.0750    1.8660    0.1700 C.2     1  UNL1        0.3111
      3 N           0.3598    1.7873    0.2206 N.am    1  UNL1       -0.2685
      4 C           0.9989    0.5586    0.0211 C.2     1  UNL1        0.0431
      5 C           0.3139   -0.5304   -0.2276 C.2     1  UNL1       -0.0298
      6 C           0.9508   -1.8585   -0.4384 C.3     1  UNL1       -0.0240
      7 C           2.3965   -1.9369   -0.2541 C.3     1  UNL1       -0.0168
      8 C           3.1037   -0.6727   -0.0434 C.ar    1  UNL1        0.0388
      9 C           2.4804    0.5457    0.1278 C.ar    1  UNL1        0.0059
     10 C           3.2038    1.6948    0.3526 C.ar    1  UNL1       -0.0521
     11 C           4.5777    1.6432    0.4092 C.ar    1  UNL1       -0.0547
     12 C           5.1847    0.4307    0.2367 C.ar    1  UNL1        0.0159
     13 C           4.4798   -0.7281    0.0116 C.ar    1  UNL1        0.2769
     14 N           5.2277   -1.9307   -0.1627 N.pl3   1  UNL1        0.0799
     15 O           6.3880   -1.8647   -0.6146 O.2     1  UNL1        0.0415
     16 O           4.7486   -3.1552    0.1359 O.co2   1  UNL1       -0.5760
     17 C          -1.1818   -0.5569   -0.4267 C.3     1  UNL1        0.0445
     18 N          -1.8022    0.6788   -0.0701 N.am    1  UNL1       -0.2477
     19 C          -3.2352    0.6984    0.0997 C.ar    1  UNL1        0.0795
     20 C          -3.9095    1.7248    0.7037 C.ar    1  UNL1       -0.0367
     21 C          -5.3134    1.7028    0.8121 C.ar    1  UNL1       -0.0598
     22 C          -6.0659    0.6687    0.3272 C.ar    1  UNL1       -0.0582
     23 C          -5.3934   -0.3625   -0.2782 C.ar    1  UNL1       -0.0183
     24 C          -3.9922   -0.3500   -0.3920 C.ar    1  UNL1        0.1382
     25 O          -3.4484   -1.4395   -1.0179 O.3     1  UNL1       -0.5049
     26 H           0.9235    2.6410    0.4050 H       1  UNL1        0.1564
     27 H           0.6380   -2.1748   -1.4780 H       1  UNL1        0.0314
     28 H           0.3714   -2.5673    0.2257 H       1  UNL1        0.0314
     29 H           2.5830   -2.6069    0.6457 H       1  UNL1        0.0319
     30 H           2.8610   -2.4279   -1.1567 H       1  UNL1        0.0319
     31 H           2.7525    2.6369    0.4872 H       1  UNL1        0.0624
     32 H           5.1891    2.5271    0.5848 H       1  UNL1        0.0620
     33 H           6.2851    0.4149    0.2858 H       1  UNL1        0.0685
     34 H          -1.5323   -1.4101    0.1953 H       1  UNL1        0.0516
     35 H          -1.3521   -0.8388   -1.4934 H       1  UNL1        0.0516
     36 H          -3.4037    2.5655    1.1297 H       1  UNL1        0.0637
     37 H          -5.8099    2.5317    1.2949 H       1  UNL1        0.0618
     38 H          -7.1438    0.6362    0.4022 H       1  UNL1        0.0619
     39 H          -5.9787   -1.1990   -0.6720 H       1  UNL1        0.0655
     40 H          -3.8382   -2.3530   -0.9059 H       1  UNL1        0.2922
@<TRIPOS>UNITY_ATOM_ATTR
14 1
charge 1
16 1
charge -1
@<TRIPOS>BOND
     1     1     2    2
     2     2     3   am
     3     3     4    1
     4     4     5    2
     5     5     6    1
     6     6     7    1
     7     7     8    1
     8     8     9   ar
     9     9    10   ar
    10    10    11   ar
    11    11    12   ar
    12    12    13   ar
    13    13    14    1
    14    14    15    2
    15    14    16    1
    16     5    17    1
    17    17    18    1
    18    18    19    1
    19    19    20   ar
    20    20    21   ar
    21    21    22   ar
    22    22    23   ar
    23    23    24   ar
    24    24    25    1
    25    18     2   am
    26    24    19   ar
    27     9     4    1
    28    13     8   ar
    29     3    26    1
    30     6    27    1
    31     6    28    1
    32     7    29    1
    33     7    30    1
    34    10    31    1
    35    11    32    1
    36    12    33    1
    37    17    34    1
    38    17    35    1
    39    20    36    1
    40    21    37    1
    41    22    38    1
    42    23    39    1
    43    25    40    1
@<TRIPOS>MOLECULE
51082015
 51 53 0 0 0
SMALL
GASTEIGER

@<TRIPOS>ATOM
      1 C           0.7144    2.5972    2.7793 C.3     1  UNL1        0.0038
      2 N           0.7957    1.3376    1.9783 N.am    1  UNL1       -0.2974
      3 C           0.3067    0.1951    2.6174 C.2     1  UNL1        0.2501
      4 O          -0.1531    0.3000    3.8003 O.2     1  UNL1       -0.2699
      5 C           0.2641   -1.1452    2.0672 C.ar    1  UNL1        0.0785
      6 C           1.3180   -2.0250    2.1630 C.ar    1  UNL1       -0.0461
      7 C           1.2192   -3.2894    1.6230 C.ar    1  UNL1       -0.0608
      8 C           0.0803   -3.7174    0.9762 C.ar    1  UNL1       -0.0583
      9 C          -0.9704   -2.8067    0.8942 C.ar    1  UNL1       -0.0192
     10 C          -0.9321   -1.5312    1.4125 C.ar    1  UNL1        0.1331
     11 O          -1.8866   -0.5906    1.3841 O.3     1  UNL1       -0.4866
     12 C          -3.1377   -0.5557    0.8580 C.3     1  UNL1        0.1147
     13 C          -3.3080   -0.6891   -0.5946 C.ar    1  UNL1       -0.0104
     14 C          -3.6625   -1.8076   -1.2910 C.ar    1  UNL1       -0.0554
     15 C          -3.7723   -1.8033   -2.6629 C.ar    1  UNL1       -0.0614
     16 C          -3.5252   -0.6566   -3.3821 C.ar    1  UNL1       -0.0617
     17 C          -3.1688    0.4813   -2.7191 C.ar    1  UNL1       -0.0614
     18 C          -3.0661    0.4508   -1.3521 C.ar    1  UNL1       -0.0554
     19 C           1.3630    1.4875    0.6940 C.3     1  UNL1        0.0274
     20 C           0.4066    1.2451   -0.4530 C.3     1  UNL1       -0.0342
     21 C           1.0613    1.6497   -1.7630 C.3     1  UNL1       -0.0500
     22 C           2.4164    1.0053   -1.9289 C.3     1  UNL1       -0.0376
     23 C           3.2844    1.4139   -0.7686 C.3     1  UNL1        0.0065
     24 N           4.6679    1.0532   -0.9362 N.3     1  UNL1       -0.3272
     25 C           2.6735    0.7470    0.4742 C.3     1  UNL1       -0.0190
     26 H          -0.1313    2.5627    3.4673 H       1  UNL1        0.0429
     27 H           0.5564    3.4601    2.1017 H       1  UNL1        0.0429
     28 H           1.6387    2.7614    3.3346 H       1  UNL1        0.0429
     29 H           2.2337   -1.7228    2.6668 H       1  UNL1        0.0626
     30 H           2.0444   -4.0010    1.6888 H       1  UNL1        0.0618
     31 H          -0.0286   -4.7027    0.5420 H       1  UNL1        0.0619
     32 H          -1.8803   -3.1237    0.4035 H       1  UNL1        0.0654
     33 H          -3.7166    0.3808    1.1671 H       1  UNL1        0.0748
     34 H          -3.8220   -1.3681    1.2950 H       1  UNL1        0.0748
     35 H          -3.8736   -2.7215   -0.7319 H       1  UNL1        0.0621
     36 H          -4.0548   -2.6944   -3.2240 H       1  UNL1        0.0618
     37 H          -3.6109   -0.6504   -4.4623 H       1  UNL1        0.0618
     38 H          -2.9770    1.3759   -3.2887 H       1  UNL1        0.0618
     39 H          -2.7848    1.3591   -0.8621 H       1  UNL1        0.0621
     40 H           1.6560    2.5791    0.5586 H       1  UNL1        0.0501
     41 H          -0.4492    1.9286   -0.3107 H       1  UNL1        0.0283
     42 H           0.1401    0.1837   -0.5285 H       1  UNL1        0.0283
     43 H           0.3680    1.3922   -2.5738 H       1  UNL1        0.0266
     44 H           1.1949    2.7475   -1.7472 H       1  UNL1        0.0266
     45 H           2.8669    1.4377   -2.8440 H       1  UNL1        0.0280
     46 H           2.3141   -0.0867   -1.9705 H       1  UNL1        0.0280
     47 H           3.1596    2.5132   -0.6073 H       1  UNL1        0.0459
     48 H           5.2330    1.8313   -1.3431 H       1  UNL1        0.1185
     49 H           5.0963    0.6121   -0.1158 H       1  UNL1        0.1185
     50 H           3.3152    0.9058    1.3377 H       1  UNL1        0.0298
     51 H           2.5233   -0.3057    0.1784 H       1  UNL1        0.0298
@<TRIPOS>BOND
     1     1     2    1
     2     2     3   am
     3     3     4    2
     4     3     5    1
     5     5     6   ar
     6     6     7   ar
     7     7     8   ar
     8     8     9   ar
     9     9    10   ar
    10    10    11    1
    11    11    12    1
    12    12    13    1
    13    13    14   ar
    14    14    15   ar
    15    15    16   ar
    16    16    17   ar
    17    17    18   ar
    18     2    19    1
    19    19    20    1
    20    20    21    1
    21    21    22    1
    22    22    23    1
    23    23    24    1
    24    23    25    1
    25    10     5   ar
    26    18    13   ar
    27    25    19    1
    28     1    26    1
    29     1    27    1
    30     1    28    1
    31     6    29    1
    32     7    30    1
    33     8    31    1
    34     9    32    1
    35    12    33    1
    36    12    34    1
    37    14    35    1
    38    15    36    1
    39    16    37    1
    40    17    38    1
    41    18    39    1
    42    19    40    1
    43    20    41    1
    44    20    42    1
    45    21    43    1
    46    21    44    1
    47    22    45    1
    48    22    46    1
    49    23    47    1
    50    24    48    1
    51    24    49    1
    52    25    50    1
    53    25    51    1
@<TRIPOS>MOLECULE
50342171
 56 59 0 0 0
SMALL
GASTEIGER

@<TRIPOS>ATOM
      1 C          -2.1291    1.7624    1.5115 C.3     1  UNL1       -0.0422
      2 C          -0.7595    2.2217    1.1734 C.3     1  UNL1        0.0490
      3 C          -0.7632    3.5956    0.6476 C.ar    1  UNL1       -0.0271
      4 C          -0.5132    3.9566   -0.6244 C.ar    1  UNL1       -0.0541
      5 C          -0.5737    5.3126   -1.0289 C.ar    1  UNL1       -0.0261
      6 C          -0.8914    6.2875   -0.1146 C.ar    1  UNL1        0.1234
      7 F          -0.9584    7.6103   -0.4801 F       1  UNL1       -0.2055
      8 C          -1.1497    5.9384    1.1897 C.ar    1  UNL1       -0.0261
      9 C          -1.0853    4.6095    1.5609 C.ar    1  UNL1       -0.0541
     10 N           0.0941    1.2867    0.4908 N.am    1  UNL1       -0.2864
     11 C          -0.2950    0.7552   -0.7818 C.3     1  UNL1        0.0406
     12 C          -0.8433   -0.6273   -0.7637 C.ar    1  UNL1       -0.0298
     13 C          -0.0101   -1.6847   -1.0214 C.ar    1  UNL1       -0.0571
     14 C          -0.4205   -3.0062   -1.0230 C.ar    1  UNL1       -0.0612
     15 C          -1.7325   -3.2833   -0.7543 C.ar    1  UNL1       -0.0580
     16 C          -2.6145   -2.2605   -0.4903 C.ar    1  UNL1       -0.0365
     17 C          -4.0130   -2.6036   -0.2069 C.3     1  UNL1        0.0699
     18 C          -4.7557   -2.6496   -1.4943 C.2     1  UNL1        0.3091
     19 O          -4.1893   -2.4206   -2.5874 O.2     1  UNL1       -0.2507
     20 O          -6.1143   -2.9531   -1.5138 O.3     1  UNL1       -0.4804
     21 C          -2.1596   -0.9345   -0.4976 C.ar    1  UNL1       -0.0534
     22 C           1.3123    0.9017    1.0955 C.2     1  UNL1        0.2489
     23 O           1.5548    1.4200    2.2437 O.2     1  UNL1       -0.2699
     24 C           2.3122    0.0111    0.5934 C.ar    1  UNL1        0.0556
     25 C           3.0882    0.3520   -0.4879 C.ar    1  UNL1        0.0404
     26 N           4.0393   -0.5010   -0.9732 N.ar    1  UNL1       -0.2542
     27 C           4.2555   -1.7030   -0.4167 C.ar    1  UNL1        0.0710
     28 C           5.2036   -2.5840   -0.8892 C.ar    1  UNL1       -0.0357
     29 C           5.4263   -3.8174   -0.3286 C.ar    1  UNL1       -0.0597
     30 C           4.6647   -4.1926    0.7590 C.ar    1  UNL1       -0.0611
     31 C           3.7160   -3.3145    1.2342 C.ar    1  UNL1       -0.0525
     32 C           3.4961   -2.0797    0.6698 C.ar    1  UNL1        0.0011
     33 C           2.5186   -1.2135    1.1757 C.ar    1  UNL1       -0.0390
     34 H          -2.8591    1.9760    0.6812 H       1  UNL1        0.0251
     35 H          -2.4909    2.4205    2.3601 H       1  UNL1        0.0251
     36 H          -2.2025    0.7417    1.8905 H       1  UNL1        0.0251
     37 H          -0.2103    2.3460    2.2135 H       1  UNL1        0.0548
     38 H          -0.2360    3.2911   -1.4056 H       1  UNL1        0.0622
     39 H          -0.3721    5.5921   -2.0531 H       1  UNL1        0.0646
     40 H          -1.4017    6.7094    1.9226 H       1  UNL1        0.0646
     41 H          -1.2923    4.3575    2.5983 H       1  UNL1        0.0622
     42 H           0.4794    0.8874   -1.5593 H       1  UNL1        0.0514
     43 H          -1.1888    1.3480   -1.1966 H       1  UNL1        0.0514
     44 H           1.0525   -1.5416   -1.2797 H       1  UNL1        0.0621
     45 H           0.3077   -3.8072   -1.2366 H       1  UNL1        0.0618
     46 H          -2.0543   -4.3284   -0.7552 H       1  UNL1        0.0620
     47 H          -4.5020   -1.9313    0.5289 H       1  UNL1        0.0426
     48 H          -4.0519   -3.6338    0.2052 H       1  UNL1        0.0426
     49 H          -6.6530   -2.6339   -2.3314 H       1  UNL1        0.2951
     50 H          -2.9071   -0.1859   -0.3014 H       1  UNL1        0.0624
     51 H           2.9927    1.2954   -1.0045 H       1  UNL1        0.0837
     52 H           5.7800   -2.2326   -1.7555 H       1  UNL1        0.0639
     53 H           6.1931   -4.4904   -0.7383 H       1  UNL1        0.0618
     54 H           4.8271   -5.1781    1.2236 H       1  UNL1        0.0618
     55 H           3.1119   -3.6141    2.1004 H       1  UNL1        0.0624
     56 H           1.9670   -1.5796    2.0258 H       1  UNL1        0.0632
@<TRIPOS>BOND
     1     1     2    1
     2     2     3    1
     3     3     4   ar
     4     4     5   ar
     5     5     6   ar
     6     6     7    1
     7     6     8   ar
     8     8     9   ar
     9     2    10    1
    10    10    11    1
    11    11    12    1
    12    12    13   ar
    13    13    14   ar
    14    14    15   ar
    15    15    16   ar
    16    16    17    1
    17    17    18    1
    18    18    19    2
    19    18    20    1
    20    16    21   ar
    21    10    22   am
    22    22    23    2
    23    22    24    1
    24    24    25   ar
    25    25    26   ar
    26    26    27   ar
    27    27    28   ar
    28    28    29   ar
    29    29    30   ar
    30    30    31   ar
    31    31    32   ar
    32    32    33   ar
    33     9     3   ar
    34    21    12   ar
    35    33    24   ar
    36    32    27   ar
    37     1    34    1
    38     1    35    1
    39     1    36    1
    40     2    37    1
    41     4    38    1
    42     5    39    1
    43     8    40    1
    44     9    41    1
    45    11    42    1
    46    11    43    1
    47    13    44    1
    48    14    45    1
    49    15    46    1
    50    17    47    1
    51    17    48    1
    52    20    49    1
    53    21    50    1
    54    25    51    1
    55    28    52    1
    56    29    53    1
    57    30    54    1
    58    31    55    1
    59    33    56    1
@<TRIPOS>MOLECULE
51078688
 30 32 0 0 0
SMALL
GASTEIGER

@<TRIPOS>ATOM
      1 O          -0.7012   -2.1583   -1.7743 O.2     1  UNL1       -0.2445
      2 C          -0.8640   -1.1503   -1.0024 C.2     1  UNL1        0.3451
      3 O           0.1256   -0.4358   -0.3463 O.3     1  UNL1       -0.4220
      4 C          -0.5179    0.5612    0.3695 C.2     1  UNL1        0.1363
      5 C           0.1087    1.4479    1.1244 C.2     1  UNL1       -0.0366
      6 C           1.5750    1.4955    1.3065 C.3     1  UNL1       -0.0057
      7 C           2.2833    0.4514    0.5603 C.ar    1  UNL1       -0.0435
      8 C           2.7305    0.6356   -0.7258 C.ar    1  UNL1       -0.0583
      9 C           3.4016   -0.3729   -1.4143 C.ar    1  UNL1       -0.0615
     10 C           3.6340   -1.5917   -0.8125 C.ar    1  UNL1       -0.0617
     11 C           3.1839   -1.7698    0.4749 C.ar    1  UNL1       -0.0615
     12 C           2.5224   -0.7668    1.1449 C.ar    1  UNL1       -0.0583
     13 C          -1.9617    0.4948    0.1750 C.ar    1  UNL1        0.0310
     14 C          -3.0512    1.2096    0.6261 C.ar    1  UNL1       -0.0503
     15 C          -4.3355    0.8853    0.2457 C.ar    1  UNL1       -0.0610
     16 C          -4.5228   -0.1827   -0.6076 C.ar    1  UNL1       -0.0609
     17 C          -3.4556   -0.9078   -1.0689 C.ar    1  UNL1       -0.0471
     18 C          -2.1650   -0.5694   -0.6769 C.ar    1  UNL1        0.0700
     19 H          -0.4973    2.1807    1.6374 H       1  UNL1        0.0612
     20 H           1.9000    2.5296    1.0235 H       1  UNL1        0.0357
     21 H           1.7806    1.4189    2.4003 H       1  UNL1        0.0357
     22 H           2.5783    1.5651   -1.2469 H       1  UNL1        0.0620
     23 H           3.7587   -0.2386   -2.4288 H       1  UNL1        0.0618
     24 H           4.1646   -2.3961   -1.3499 H       1  UNL1        0.0618
     25 H           3.3662   -2.7270    0.9482 H       1  UNL1        0.0618
     26 H           2.1825   -0.9382    2.1529 H       1  UNL1        0.0620
     27 H          -2.8837    2.0543    1.3028 H       1  UNL1        0.0625
     28 H          -5.1773    1.4661    0.6166 H       1  UNL1        0.0618
     29 H          -5.5484   -0.4477   -0.9160 H       1  UNL1        0.0618
     30 H          -3.6145   -1.7431   -1.7375 H       1  UNL1        0.0626
@<TRIPOS>BOND
     1     1     2    2
     2     2     3    1
     3     3     4    1
     4     4     5    2
     5     5     6    1
     6     6     7    1
     7     7     8   ar
     8     8     9   ar
     9     9    10   ar
    10    10    11   ar
    11    11    12   ar
    12     4    13    1
    13    13    14   ar
    14    14    15   ar
    15    15    16   ar
    16    16    17   ar
    17    17    18   ar
    18    18     2    1
    19    12     7   ar
    20    18    13   ar
    21     5    19    1
    22     6    20    1
    23     6    21    1
    24     8    22    1
    25     9    23    1
    26    10    24    1
    27    11    25    1
    28    12    26    1
    29    14    27    1
    30    15    28    1
    31    16    29    1
    32    17    30    1
@<TRIPOS>MOLECULE
50342274
 53 56 0 0 0
SMALL
GASTEIGER

@<TRIPOS>ATOM
      1 C           0.1624    2.0232    2.7084 C.3     1  UNL1       -0.0422
      2 C           0.1729    1.3517    1.3746 C.3     1  UNL1        0.0490
      3 C          -0.4372    2.1133    0.2686 C.ar    1  UNL1       -0.0271
      4 C          -0.4364    1.6268   -1.0223 C.ar    1  UNL1       -0.0541
      5 C          -1.0031    2.3170   -2.0737 C.ar    1  UNL1       -0.0261
      6 C          -1.6083    3.5531   -1.8698 C.ar    1  UNL1        0.1234
      7 F          -2.1595    4.2159   -2.9297 F       1  UNL1       -0.2055
      8 C          -1.6193    4.0519   -0.5989 C.ar    1  UNL1       -0.0261
      9 C          -1.0415    3.3436    0.4626 C.ar    1  UNL1       -0.0541
     10 N          -0.3432   -0.0293    1.4800 N.am    1  UNL1       -0.2864
     11 C          -1.6966   -0.3002    1.8648 C.3     1  UNL1        0.0406
     12 C          -2.6512   -0.6119    0.7932 C.ar    1  UNL1       -0.0291
     13 C          -3.3298    0.3513    0.0791 C.ar    1  UNL1       -0.0543
     14 C          -4.2249    0.0260   -0.9045 C.ar    1  UNL1       -0.0253
     15 C          -4.4930   -1.2818   -1.2285 C.ar    1  UNL1        0.1374
     16 F          -5.3800   -1.6424   -2.2024 F       1  UNL1       -0.2046
     17 C          -3.8356   -2.2743   -0.5364 C.ar    1  UNL1        0.0942
     18 C          -4.1196   -3.6731   -0.8849 C.2     1  UNL1        0.3396
     19 O          -3.5616   -4.5558   -0.1895 O.2     1  UNL1       -0.2450
     20 O          -4.9459   -4.0653   -1.9108 O.3     1  UNL1       -0.4771
     21 C          -2.9461   -1.9296    0.4414 C.ar    1  UNL1       -0.0403
     22 C           0.5433   -1.1208    1.2595 C.2     1  UNL1        0.2489
     23 O           0.1403   -2.3056    1.3400 O.2     1  UNL1       -0.2699
     24 C           1.9626   -0.9634    0.9306 C.ar    1  UNL1        0.0556
     25 C           2.8127   -0.6138    1.9603 C.ar    1  UNL1        0.0404
     26 N           4.1161   -0.4864    1.6808 N.ar    1  UNL1       -0.2542
     27 C           4.5936   -0.6918    0.4313 C.ar    1  UNL1        0.0710
     28 C           5.9440   -0.5592    0.1719 C.ar    1  UNL1       -0.0357
     29 C           6.4613   -0.7664   -1.0896 C.ar    1  UNL1       -0.0597
     30 C           5.6465   -1.1176   -2.1540 C.ar    1  UNL1       -0.0611
     31 C           4.2986   -1.2517   -1.8990 C.ar    1  UNL1       -0.0525
     32 C           3.7944   -1.0423   -0.6374 C.ar    1  UNL1        0.0011
     33 C           2.4298   -1.1738   -0.3347 C.ar    1  UNL1       -0.0390
     34 H          -0.7640    1.7627    3.2993 H       1  UNL1        0.0251
     35 H           0.2280    3.1212    2.6959 H       1  UNL1        0.0251
     36 H           1.0713    1.7147    3.3230 H       1  UNL1        0.0251
     37 H           1.2848    1.2003    1.1366 H       1  UNL1        0.0548
     38 H           0.0294    0.6684   -1.1920 H       1  UNL1        0.0622
     39 H          -1.0145    1.9545   -3.0996 H       1  UNL1        0.0646
     40 H          -2.0803    5.0141   -0.3975 H       1  UNL1        0.0646
     41 H          -1.1057    3.8139    1.4361 H       1  UNL1        0.0622
     42 H          -1.6812   -1.2075    2.5379 H       1  UNL1        0.0514
     43 H          -2.1337    0.5030    2.4980 H       1  UNL1        0.0514
     44 H          -3.1808    1.3945    0.2819 H       1  UNL1        0.0622
     45 H          -4.7537    0.8234   -1.4598 H       1  UNL1        0.0646
     46 H          -4.7395   -4.8890   -2.5007 H       1  UNL1        0.2954
     47 H          -2.4486   -2.7529    0.9874 H       1  UNL1        0.0630
     48 H           2.4307   -0.4435    2.9803 H       1  UNL1        0.0837
     49 H           6.5860   -0.2817    1.0182 H       1  UNL1        0.0639
     50 H           7.5085   -0.6617   -1.2815 H       1  UNL1        0.0618
     51 H           6.0736   -1.2796   -3.1541 H       1  UNL1        0.0618
     52 H           3.6350   -1.5271   -2.7213 H       1  UNL1        0.0624
     53 H           1.8094   -1.4447   -1.1691 H       1  UNL1        0.0632
@<TRIPOS>BOND
     1     1     2    1
     2     2     3    1
     3     3     4   ar
     4     4     5   ar
     5     5     6   ar
     6     6     7    1
     7     6     8   ar
     8     8     9   ar
     9     2    10    1
    10    10    11    1
    11    11    12    1
    12    12    13   ar
    13    13    14   ar
    14    14    15   ar
    15    15    16    1
    16    15    17   ar
    17    17    18    1
    18    18    19    2
    19    18    20    1
    20    17    21   ar
    21    10    22   am
    22    22    23    2
    23    22    24    1
    24    24    25   ar
    25    25    26   ar
    26    26    27   ar
    27    27    28   ar
    28    28    29   ar
    29    29    30   ar
    30    30    31   ar
    31    31    32   ar
    32    32    33   ar
    33     9     3   ar
    34    21    12   ar
    35    33    24   ar
    36    32    27   ar
    37     1    34    1
    38     1    35    1
    39     1    36    1
    40     2    37    1
    41     4    38    1
    42     5    39    1
    43     8    40    1
    44     9    41    1
    45    11    42    1
    46    11    43    1
    47    13    44    1
    48    14    45    1
    49    20    46    1
    50    21    47    1
    51    25    48    1
    52    28    49    1
    53    29    50    1
    54    30    51    1
    55    31    52    1
    56    33    53    1
@<TRIPOS>MOLECULE
51135380
 53 56 0 0 0
SMALL
GASTEIGER

@<TRIPOS>ATOM
      1 C           5.7610    1.6741   -0.0692 C.3     1  UNL1        0.0119
      2 N           4.5556    0.8728   -0.2556 N.ar    1  UNL1       -0.3494
      3 C           3.3698    1.3809   -0.5892 C.ar    1  UNL1        0.0086
      4 C           2.4520    0.3192   -0.6729 C.ar    1  UNL1       -0.0209
      5 C           1.0039    0.4806   -0.9927 C.3     1  UNL1       -0.0129
      6 C           0.2340    0.4894    0.2839 C.3     1  UNL1        0.0036
      7 N          -1.1653    0.7281    0.1961 N.3     1  UNL1       -0.2937
      8 C          -1.9168   -0.3017   -0.3813 C.3     1  UNL1        0.0244
      9 C          -2.0140   -1.5671    0.3765 C.ar    1  UNL1       -0.0334
     10 C          -1.2426   -2.6873    0.1845 C.ar    1  UNL1       -0.0573
     11 C          -1.3952   -3.8271    0.9593 C.ar    1  UNL1       -0.0615
     12 C          -2.3385   -3.8735    1.9589 C.ar    1  UNL1       -0.0617
     13 C          -3.1236   -2.7636    2.1699 C.ar    1  UNL1       -0.0615
     14 C          -2.9516   -1.6628    1.3970 C.ar    1  UNL1       -0.0573
     15 C          -1.3840    2.0406   -0.3095 C.3     1  UNL1        0.0244
     16 C          -2.8078    2.4567   -0.4105 C.ar    1  UNL1       -0.0334
     17 C          -3.4911    3.0866    0.6083 C.ar    1  UNL1       -0.0573
     18 C          -4.8173    3.4800    0.4832 C.ar    1  UNL1       -0.0615
     19 C          -5.5034    3.2502   -0.6785 C.ar    1  UNL1       -0.0617
     20 C          -4.8418    2.6220   -1.7096 C.ar    1  UNL1       -0.0615
     21 C          -3.5288    2.2349   -1.5804 C.ar    1  UNL1       -0.0573
     22 C           3.1343   -0.8230   -0.3800 C.ar    1  UNL1        0.0031
     23 C           2.7819   -2.1700   -0.3105 C.ar    1  UNL1       -0.0523
     24 C           3.7046   -3.1199    0.0061 C.ar    1  UNL1       -0.0611
     25 C           5.0123   -2.7668    0.2653 C.ar    1  UNL1       -0.0598
     26 C           5.3962   -1.4336    0.2041 C.ar    1  UNL1       -0.0376
     27 C           4.4575   -0.4634   -0.1186 C.ar    1  UNL1        0.0491
     28 H           5.6123    2.4971    0.6446 H       1  UNL1        0.0456
     29 H           6.0816    2.1380   -1.0307 H       1  UNL1        0.0456
     30 H           6.5925    1.0327    0.3471 H       1  UNL1        0.0456
     31 H           3.0766    2.4231   -0.7814 H       1  UNL1        0.0812
     32 H           0.7447   -0.3815   -1.6520 H       1  UNL1        0.0326
     33 H           0.9204    1.3703   -1.6208 H       1  UNL1        0.0326
     34 H           0.4309   -0.4989    0.7728 H       1  UNL1        0.0430
     35 H           0.7515    1.2180    0.9676 H       1  UNL1        0.0430
     36 H          -1.5365   -0.6106   -1.4069 H       1  UNL1        0.0476
     37 H          -2.9615    0.0709   -0.6426 H       1  UNL1        0.0476
     38 H          -0.5062   -2.6875   -0.6013 H       1  UNL1        0.0621
     39 H          -0.7857   -4.6949    0.7995 H       1  UNL1        0.0618
     40 H          -2.4677   -4.7758    2.5803 H       1  UNL1        0.0618
     41 H          -3.8775   -2.7596    2.9469 H       1  UNL1        0.0618
     42 H          -3.5767   -0.8008    1.5772 H       1  UNL1        0.0621
     43 H          -0.8770    2.1791   -1.3061 H       1  UNL1        0.0476
     44 H          -0.8810    2.7912    0.3553 H       1  UNL1        0.0476
     45 H          -2.9995    3.2921    1.5423 H       1  UNL1        0.0621
     46 H          -5.3555    3.9832    1.2971 H       1  UNL1        0.0618
     47 H          -6.5521    3.5503   -0.8091 H       1  UNL1        0.0618
     48 H          -5.3975    2.4458   -2.6249 H       1  UNL1        0.0618
     49 H          -3.0727    1.7463   -2.4251 H       1  UNL1        0.0621
     50 H           1.7495   -2.3851   -0.5291 H       1  UNL1        0.0624
     51 H           3.3651   -4.1445    0.0411 H       1  UNL1        0.0618
     52 H           5.7563   -3.5201    0.5186 H       1  UNL1        0.0618
     53 H           6.4244   -1.1351    0.4051 H       1  UNL1        0.0638
@<TRIPOS>BOND
     1     1     2    1
     2     2     3   ar
     3     3     4   ar
     4     4     5    1
     5     5     6    1
     6     6     7    1
     7     7     8    1
     8     8     9    1
     9     9    10   ar
    10    10    11   ar
    11    11    12   ar
    12    12    13   ar
    13    13    14   ar
    14     7    15    1
    15    15    16    1
    16    16    17   ar
    17    17    18   ar
    18    18    19   ar
    19    19    20   ar
    20    20    21   ar
    21     4    22   ar
    22    22    23   ar
    23    23    24   ar
    24    24    25   ar
    25    25    26   ar
    26    26    27   ar
    27    27     2   ar
    28    14     9   ar
    29    21    16   ar
    30    27    22   ar
    31     1    28    1
    32     1    29    1
    33     1    30    1
    34     3    31    1
    35     5    32    1
    36     5    33    1
    37     6    34    1
    38     6    35    1
    39     8    36    1
    40     8    37    1
    41    10    38    1
    42    11    39    1
    43    12    40    1
    44    13    41    1
    45    14    42    1
    46    15    43    1
    47    15    44    1
    48    17    45    1
    49    18    46    1
    50    19    47    1
    51    20    48    1
    52    21    49    1
    53    23    50    1
    54    24    51    1
    55    25    52    1
    56    26    53    1
@<TRIPOS>MOLECULE
CHEMBL4763338
 48 51 0 0 0
SMALL
GASTEIGER

@<TRIPOS>ATOM
      1 N          -0.5051   -0.6306    2.1766 N.am    1  UNL1       -0.3275
      2 C          -0.6648    0.5481    1.4339 C.2     1  UNL1        0.2356
      3 O          -0.9570    1.6327    1.9983 O.2     1  UNL1       -0.2736
      4 C          -0.4914    0.5425   -0.0609 C.3     1  UNL1        0.1282
      5 C           0.4744    1.5764   -0.4330 C.ar    1  UNL1       -0.0182
      6 C           1.1925    2.3130    0.4876 C.ar    1  UNL1       -0.0563
      7 C           2.0775    3.3340    0.1203 C.ar    1  UNL1       -0.0614
      8 C           2.2592    3.6357   -1.1955 C.ar    1  UNL1       -0.0617
      9 C           1.5732    2.9352   -2.1299 C.ar    1  UNL1       -0.0614
     10 C           0.6990    1.9266   -1.7574 C.ar    1  UNL1       -0.0563
     11 N          -0.2736   -0.7921   -0.4848 N.am    1  UNL1       -0.2715
     12 C           0.9104   -1.5675   -0.2784 C.2     1  UNL1        0.2481
     13 O           0.9241   -2.7847   -0.7137 O.2     1  UNL1       -0.2699
     14 C           2.1360   -1.1702    0.3646 C.ar    1  UNL1        0.0369
     15 C           2.4523   -1.6525    1.6164 C.ar    1  UNL1       -0.0496
     16 C           3.6386   -1.2921    2.2308 C.ar    1  UNL1       -0.0610
     17 C           4.5417   -0.4462    1.6238 C.ar    1  UNL1       -0.0617
     18 C           4.2508    0.0467    0.3792 C.ar    1  UNL1       -0.0610
     19 C           3.0517   -0.3228   -0.2341 C.ar    1  UNL1       -0.0496
     20 C          -1.3770   -1.5053   -1.1653 C.3     1  UNL1        0.0899
     21 C          -1.6970   -0.9337   -2.5264 C.3     1  UNL1        0.1123
     22 O          -2.6388    0.0578   -2.2408 O.3     1  UNL1       -0.4894
     23 C          -3.3879   -0.4255   -1.1446 C.ar    1  UNL1        0.1257
     24 C          -4.6573   -0.1035   -0.6944 C.ar    1  UNL1       -0.0196
     25 C          -5.2125   -0.6971    0.4108 C.ar    1  UNL1       -0.0583
     26 C          -4.4616   -1.6338    1.0674 C.ar    1  UNL1       -0.0612
     27 C          -3.2026   -1.9778    0.6509 C.ar    1  UNL1       -0.0532
     28 C          -2.6581   -1.3655   -0.4698 C.ar    1  UNL1        0.0179
     29 H          -0.6131   -1.6006    1.7970 H       1  UNL1        0.1450
     30 H          -0.2559   -0.6218    3.2115 H       1  UNL1        0.1450
     31 H          -1.5302    0.8713   -0.4523 H       1  UNL1        0.0648
     32 H           1.1444    2.1587    1.5560 H       1  UNL1        0.0621
     33 H           2.6306    3.9015    0.8551 H       1  UNL1        0.0618
     34 H           2.9454    4.4288   -1.4965 H       1  UNL1        0.0618
     35 H           1.7331    3.1919   -3.1672 H       1  UNL1        0.0618
     36 H           0.2025    1.4338   -2.5536 H       1  UNL1        0.0621
     37 H           1.7318   -2.3195    2.0818 H       1  UNL1        0.0625
     38 H           3.8534   -1.6948    3.2190 H       1  UNL1        0.0618
     39 H           5.4794   -0.1789    2.1444 H       1  UNL1        0.0618
     40 H           4.8985    0.7070   -0.1538 H       1  UNL1        0.0618
     41 H           2.8026    0.0521   -1.2232 H       1  UNL1        0.0625
     42 H          -1.0636   -2.5883   -1.3065 H       1  UNL1        0.0586
     43 H          -2.2161   -1.7682   -3.0773 H       1  UNL1        0.0719
     44 H          -0.8075   -0.6055   -3.0884 H       1  UNL1        0.0719
     45 H          -5.2113    0.6557   -1.2647 H       1  UNL1        0.0654
     46 H          -6.1845   -0.4322    0.7339 H       1  UNL1        0.0619
     47 H          -4.8982   -2.1114    1.9528 H       1  UNL1        0.0618
     48 H          -2.6379   -2.7272    1.2003 H       1  UNL1        0.0622
@<TRIPOS>BOND
     1     1     2   am
     2     2     3    2
     3     2     4    1
     4     4     5    1
     5     5     6   ar
     6     6     7   ar
     7     7     8   ar
     8     8     9   ar
     9     9    10   ar
    10     4    11    1
    11    11    12   am
    12    12    13    2
    13    12    14    1
    14    14    15   ar
    15    15    16   ar
    16    16    17   ar
    17    17    18   ar
    18    18    19   ar
    19    11    20    1
    20    20    21    1
    21    21    22    1
    22    22    23    1
    23    23    24   ar
    24    24    25   ar
    25    25    26   ar
    26    26    27   ar
    27    27    28   ar
    28    10     5   ar
    29    19    14   ar
    30    28    20    1
    31    28    23   ar
    32     1    29    1
    33     1    30    1
    34     4    31    1
    35     6    32    1
    36     7    33    1
    37     8    34    1
    38     9    35    1
    39    10    36    1
    40    15    37    1
    41    16    38    1
    42    17    39    1
    43    18    40    1
    44    19    41    1
    45    20    42    1
    46    21    43    1
    47    21    44    1
    48    24    45    1
    49    25    46    1
    50    26    47    1
    51    27    48    1
@<TRIPOS>MOLECULE
51135396
 50 54 0 0 0
SMALL
GASTEIGER

@<TRIPOS>ATOM
      1 O          -7.3548   -1.5493    1.8335 O.2     1  UNL1        0.0414
      2 N          -6.8485   -1.3935    0.7240 N.pl3   1  UNL1        0.0796
      3 O          -7.5497   -1.7835   -0.3826 O.co2   1  UNL1       -0.5760
      4 C          -5.5686   -0.8220    0.6148 C.ar    1  UNL1        0.2732
      5 C          -4.8149   -0.4107    1.6858 C.ar    1  UNL1        0.0159
      6 C          -3.5439    0.1540    1.5344 C.ar    1  UNL1       -0.0509
      7 C          -2.9978    0.3199    0.3057 C.ar    1  UNL1       -0.0329
      8 C          -1.6861    0.8864   -0.0102 C.3     1  UNL1        0.0250
      9 N          -0.6003   -0.0195   -0.1107 N.3     1  UNL1       -0.2859
     10 C          -0.3412   -0.7124    1.0694 C.3     1  UNL1        0.0042
     11 C           1.0415   -1.1759    1.3640 C.3     1  UNL1       -0.0125
     12 C           1.9178   -1.1854    0.1642 C.ar    1  UNL1       -0.0160
     13 C           1.6664   -0.3552   -0.9101 C.ar    1  UNL1        0.0421
     14 N           2.6126   -0.5815   -1.8388 N.ar    1  UNL1       -0.3562
     15 C           3.4681   -1.5272   -1.4069 C.ar    1  UNL1        0.0470
     16 C           4.5888   -2.1048   -1.9756 C.ar    1  UNL1       -0.0378
     17 C           5.2889   -3.0721   -1.2901 C.ar    1  UNL1       -0.0598
     18 C           4.8546   -3.4531   -0.0320 C.ar    1  UNL1       -0.0611
     19 C           3.7458   -2.8767    0.5223 C.ar    1  UNL1       -0.0523
     20 C           3.0268   -1.9033   -0.1474 C.ar    1  UNL1        0.0032
     21 C           0.4961    0.5377   -0.8098 C.3     1  UNL1        0.0767
     22 C           0.8738    1.9239   -0.4397 C.ar    1  UNL1       -0.0245
     23 C           1.1301    2.8620   -1.4338 C.ar    1  UNL1       -0.0567
     24 C           1.4841    4.1479   -1.1141 C.ar    1  UNL1       -0.0614
     25 C           1.6032    4.5743    0.1870 C.ar    1  UNL1       -0.0617
     26 C           1.3555    3.6673    1.1926 C.ar    1  UNL1       -0.0614
     27 C           0.9958    2.3602    0.8572 C.ar    1  UNL1       -0.0567
     28 C          -3.7715   -0.1016   -0.7835 C.ar    1  UNL1       -0.0509
     29 C          -5.0157   -0.6546   -0.6381 C.ar    1  UNL1        0.0159
     30 H          -5.2116   -0.5253    2.6685 H       1  UNL1        0.0685
     31 H          -2.9840    0.4670    2.3934 H       1  UNL1        0.0623
     32 H          -1.7954    1.4798   -0.9645 H       1  UNL1        0.0476
     33 H          -1.4558    1.6592    0.7558 H       1  UNL1        0.0476
     34 H          -1.0429   -1.6157    1.1712 H       1  UNL1        0.0430
     35 H          -0.7169   -0.0672    1.9287 H       1  UNL1        0.0430
     36 H           1.0093   -2.1926    1.8465 H       1  UNL1        0.0326
     37 H           1.5228   -0.5348    2.1280 H       1  UNL1        0.0326
     38 H           2.6931   -0.1035   -2.7710 H       1  UNL1        0.1657
     39 H           4.9375   -1.8214   -2.9472 H       1  UNL1        0.0638
     40 H           6.1758   -3.5639   -1.6807 H       1  UNL1        0.0618
     41 H           5.3911   -4.2163    0.5309 H       1  UNL1        0.0618
     42 H           3.3858   -3.1610    1.5111 H       1  UNL1        0.0624
     43 H           0.1073    0.6392   -1.8957 H       1  UNL1        0.0577
     44 H           1.0491    2.5732   -2.4966 H       1  UNL1        0.0621
     45 H           1.6864    4.8883   -1.9026 H       1  UNL1        0.0618
     46 H           1.8890    5.6130    0.4195 H       1  UNL1        0.0618
     47 H           1.4473    3.9957    2.2170 H       1  UNL1        0.0618
     48 H           0.8169    1.6956    1.6863 H       1  UNL1        0.0621
     49 H          -3.3906    0.0035   -1.8026 H       1  UNL1        0.0623
     50 H          -5.5712   -0.9643   -1.5274 H       1  UNL1        0.0685
@<TRIPOS>UNITY_ATOM_ATTR
2 1
charge 1
3 1
charge -1
@<TRIPOS>BOND
     1     1     2    2
     2     2     3    1
     3     2     4    1
     4     4     5   ar
     5     5     6   ar
     6     6     7   ar
     7     7     8    1
     8     8     9    1
     9     9    10    1
    10    10    11    1
    11    11    12    1
    12    12    13   ar
    13    13    14   ar
    14    14    15   ar
    15    15    16   ar
    16    16    17   ar
    17    17    18   ar
    18    18    19   ar
    19    19    20   ar
    20    13    21    1
    21    21    22    1
    22    22    23   ar
    23    23    24   ar
    24    24    25   ar
    25    25    26   ar
    26    26    27   ar
    27     7    28   ar
    28    28    29   ar
    29    29     4   ar
    30    21     9    1
    31    27    22   ar
    32    20    12   ar
    33    20    15   ar
    34     5    30    1
    35     6    31    1
    36     8    32    1
    37     8    33    1
    38    10    34    1
    39    10    35    1
    40    11    36    1
    41    11    37    1
    42    14    38    1
    43    16    39    1
    44    17    40    1
    45    18    41    1
    46    19    42    1
    47    21    43    1
    48    23    44    1
    49    24    45    1
    50    25    46    1
    51    26    47    1
    52    27    48    1
    53    28    49    1
    54    29    50    1
@<TRIPOS>MOLECULE
260806
 38 40 0 0 0
SMALL
GASTEIGER

@<TRIPOS>ATOM
      1 N           6.3771   -1.0070   -0.1999 N.3     1  UNL1       -0.3297
      2 C           4.9375   -1.0439   -0.0784 C.3     1  UNL1       -0.0029
      3 C           4.2973   -0.2990   -1.2500 C.3     1  UNL1       -0.0133
      4 C           2.8345   -0.3565   -1.0966 C.ar    1  UNL1       -0.0210
      5 C           1.9022   -1.1256   -1.7597 C.ar    1  UNL1        0.0061
      6 N           0.6775   -0.8438   -1.2890 N.ar    1  UNL1       -0.3575
      7 C           0.7559    0.1104   -0.3097 C.ar    1  UNL1        0.0890
      8 C          -0.2065    0.7226    0.4658 C.ar    1  UNL1        0.1447
      9 O          -1.5264    0.3466    0.2671 O.3     1  UNL1       -0.4853
     10 C          -2.6051    0.8854    0.9834 C.3     1  UNL1        0.1147
     11 C          -3.8618    0.2438    0.4987 C.ar    1  UNL1       -0.0104
     12 C          -4.5899    0.7696   -0.5419 C.ar    1  UNL1       -0.0554
     13 C          -5.7505    0.1721   -0.9849 C.ar    1  UNL1       -0.0614
     14 C          -6.1630   -0.9695   -0.3554 C.ar    1  UNL1       -0.0617
     15 C          -5.4611   -1.5336    0.6963 C.ar    1  UNL1       -0.0614
     16 C          -4.3190   -0.9214    1.1118 C.ar    1  UNL1       -0.0554
     17 C           0.1804    1.6621    1.3851 C.ar    1  UNL1       -0.0178
     18 C           1.5138    1.9696    1.5107 C.ar    1  UNL1       -0.0576
     19 C           2.4749    1.3570    0.7349 C.ar    1  UNL1       -0.0521
     20 C           2.0920    0.4065   -0.1966 C.ar    1  UNL1        0.0065
     21 H           6.7611   -0.5798    0.6657 H       1  UNL1        0.1182
     22 H           6.6839   -0.4307   -1.0179 H       1  UNL1        0.1182
     23 H           4.6359   -0.6060    0.8793 H       1  UNL1        0.0425
     24 H           4.5739   -2.1045   -0.0881 H       1  UNL1        0.0425
     25 H           4.6568   -0.6874   -2.2055 H       1  UNL1        0.0326
     26 H           4.6313    0.7591   -1.1683 H       1  UNL1        0.0326
     27 H           2.1718   -1.8385   -2.5389 H       1  UNL1        0.0810
     28 H          -0.1974   -1.2712   -1.6056 H       1  UNL1        0.1654
     29 H          -2.4924    0.7904    2.0790 H       1  UNL1        0.0748
     30 H          -2.6602    1.9701    0.7594 H       1  UNL1        0.0748
     31 H          -4.2511    1.6806   -1.0364 H       1  UNL1        0.0621
     32 H          -6.3262    0.5926   -1.8115 H       1  UNL1        0.0618
     33 H          -7.0762   -1.4978   -0.6548 H       1  UNL1        0.0618
     34 H          -5.7843   -2.4357    1.1954 H       1  UNL1        0.0618
     35 H          -3.7450   -1.3231    1.9219 H       1  UNL1        0.0621
     36 H          -0.5464    2.1571    2.0045 H       1  UNL1        0.0655
     37 H           1.8821    2.7073    2.2238 H       1  UNL1        0.0619
     38 H           3.5228    1.5721    0.8065 H       1  UNL1        0.0624
@<TRIPOS>BOND
     1     1     2    1
     2     2     3    1
     3     3     4    1
     4     4     5   ar
     5     5     6   ar
     6     6     7   ar
     7     7     8   ar
     8     8     9    1
     9     9    10    1
    10    10    11    1
    11    11    12   ar
    12    12    13   ar
    13    13    14   ar
    14    14    15   ar
    15    15    16   ar
    16     8    17   ar
    17    17    18   ar
    18    18    19   ar
    19    19    20   ar
    20    20     4   ar
    21    20     7   ar
    22    16    11   ar
    23     1    21    1
    24     1    22    1
    25     2    23    1
    26     2    24    1
    27     3    25    1
    28     3    26    1
    29     5    27    1
    30     6    28    1
    31    10    29    1
    32    10    30    1
    33    12    31    1
    34    13    32    1
    35    14    33    1
    36    15    34    1
    37    16    35    1
    38    17    36    1
    39    18    37    1
    40    19    38    1
@<TRIPOS>MOLECULE
50333160
 33 35 0 0 0
SMALL
GASTEIGER

@<TRIPOS>ATOM
      1 O           2.0080   -2.6203   -1.2396 O.2     1  UNL1       -0.2462
      2 C           1.1347   -1.7829   -0.8492 C.ar    1  UNL1        0.3317
      3 N          -0.1807   -1.9335   -1.0200 N.ar    1  UNL1       -0.3057
      4 C          -0.7727   -0.8541   -0.4803 C.ar    1  UNL1        0.0674
      5 C          -2.2021   -0.5764   -0.4287 C.ar    1  UNL1        0.0062
      6 C          -3.1223   -1.4520   -0.9622 C.ar    1  UNL1       -0.0522
      7 C          -4.4730   -1.1887   -0.9130 C.ar    1  UNL1       -0.0547
      8 C          -4.9227   -0.0166   -0.3137 C.ar    1  UNL1        0.0156
      9 C          -4.0349    0.8714    0.2242 C.ar    1  UNL1        0.2738
     10 N          -4.5137    2.0588    0.8297 N.pl3   1  UNL1        0.0796
     11 O          -5.7440    2.2558    0.8516 O.2     1  UNL1        0.0414
     12 O          -3.6550    2.9848    1.3860 O.co2   1  UNL1       -0.5760
     13 C          -2.6780    0.5752    0.1577 C.ar    1  UNL1        0.0247
     14 C           0.2259   -0.0458    0.0224 C.ar    1  UNL1        0.0387
     15 N           1.4289   -0.6363   -0.2127 N.ar    1  UNL1       -0.2641
     16 C           2.7228   -0.1562    0.1338 C.ar    1  UNL1        0.0922
     17 C           3.7591   -1.0199    0.4734 C.ar    1  UNL1       -0.0341
     18 C           5.0133   -0.6204    0.8126 C.ar    1  UNL1       -0.0596
     19 C           5.2951    0.7270    0.8262 C.ar    1  UNL1       -0.0582
     20 C           4.2823    1.6340    0.4911 C.ar    1  UNL1       -0.0181
     21 C           3.0214    1.1891    0.1523 C.ar    1  UNL1        0.1407
     22 O           2.0280    2.0988   -0.1774 O.3     1  UNL1       -0.5047
     23 H          -0.7012   -2.7284   -1.4829 H       1  UNL1        0.1705
     24 H          -2.8206   -2.3807   -1.4408 H       1  UNL1        0.0624
     25 H          -5.1735   -1.8885   -1.3369 H       1  UNL1        0.0620
     26 H          -6.0059    0.1692   -0.2879 H       1  UNL1        0.0685
     27 H          -2.0042    1.3161    0.6019 H       1  UNL1        0.0692
     28 H           0.1455    0.9062    0.5286 H       1  UNL1        0.0835
     29 H           3.5222   -2.0776    0.4582 H       1  UNL1        0.0639
     30 H           5.7678   -1.3799    1.0664 H       1  UNL1        0.0618
     31 H           6.2845    1.0527    1.0932 H       1  UNL1        0.0619
     32 H           4.5431    2.6953    0.5129 H       1  UNL1        0.0655
     33 H           1.8219    2.8236    0.5237 H       1  UNL1        0.2922
@<TRIPOS>UNITY_ATOM_ATTR
10 1
charge 1
12 1
charge -1
@<TRIPOS>BOND
     1     1     2    2
     2     2     3   ar
     3     3     4   ar
     4     4     5    1
     5     5     6   ar
     6     6     7   ar
     7     7     8   ar
     8     8     9   ar
     9     9    10    1
    10    10    11    2
    11    10    12    1
    12     9    13   ar
    13     4    14   ar
    14    14    15   ar
    15    15    16    1
    16    16    17   ar
    17    17    18   ar
    18    18    19   ar
    19    19    20   ar
    20    20    21   ar
    21    21    22    1
    22    15     2   ar
    23    21    16   ar
    24    13     5   ar
    25     3    23    1
    26     6    24    1
    27     7    25    1
    28     8    26    1
    29    13    27    1
    30    14    28    1
    31    17    29    1
    32    18    30    1
    33    19    31    1
    34    20    32    1
    35    22    33    1
@<TRIPOS>MOLECULE
50928618
 42 43 0 0 0
SMALL
GASTEIGER

@<TRIPOS>ATOM
      1 C          -2.5394    2.8140    2.0114 C.3     1  UNL1       -0.0411
      2 C          -2.3806    1.8009    0.9039 C.3     1  UNL1        0.0541
      3 O          -1.0130    1.7189    0.5737 O.3     1  UNL1       -0.3075
      4 P          -0.8164    0.6055   -0.6474 P.3     1  UNL1        0.3444
      5 O          -0.6380    1.3918   -1.9501 O.2     1  UNL1       -0.2575
      6 O          -2.2531   -0.2904   -0.8622 O.3     1  UNL1       -0.3075
      7 C          -2.4700   -0.5212   -2.2243 C.3     1  UNL1        0.0541
      8 C          -3.7329   -1.3107   -2.4462 C.3     1  UNL1       -0.0411
      9 C           0.5976   -0.4725   -0.4902 C.3     1  UNL1        0.1110
     10 C           0.6606   -1.2736    0.7319 C.ar    1  UNL1       -0.0285
     11 C           1.1009   -2.5823    0.7036 C.ar    1  UNL1       -0.0574
     12 C           1.1743   -3.3624    1.8312 C.ar    1  UNL1       -0.0615
     13 C           0.7991   -2.8414    3.0521 C.ar    1  UNL1       -0.0617
     14 C           0.3581   -1.5478    3.1154 C.ar    1  UNL1       -0.0615
     15 C           0.2896   -0.7670    1.9572 C.ar    1  UNL1       -0.0574
     16 C           1.8491    0.3199   -0.7261 C.ar    1  UNL1       -0.0284
     17 C           2.0450    1.5895   -0.2250 C.ar    1  UNL1       -0.0564
     18 C           3.2319    2.2678   -0.4835 C.ar    1  UNL1       -0.0475
     19 C           4.2215    1.6853   -1.2384 C.ar    1  UNL1        0.0179
     20 BR          5.8713    2.5994   -1.6113 Br      1  UNL1       -0.0503
     21 C           4.0367    0.4171   -1.7442 C.ar    1  UNL1       -0.0475
     22 C           2.8653   -0.2298   -1.4784 C.ar    1  UNL1       -0.0564
     23 H          -1.8226    2.5337    2.8103 H       1  UNL1        0.0252
     24 H          -2.3257    3.8057    1.5764 H       1  UNL1        0.0252
     25 H          -3.5846    2.8231    2.3755 H       1  UNL1        0.0252
     26 H          -2.9979    2.0821    0.0340 H       1  UNL1        0.0562
     27 H          -2.6517    0.7781    1.2624 H       1  UNL1        0.0562
     28 H          -2.6234    0.4629   -2.7570 H       1  UNL1        0.0562
     29 H          -1.6130   -1.0014   -2.7212 H       1  UNL1        0.0562
     30 H          -4.5678   -0.8812   -1.8840 H       1  UNL1        0.0252
     31 H          -3.9500   -1.2564   -3.5523 H       1  UNL1        0.0252
     32 H          -3.6109   -2.3843   -2.2028 H       1  UNL1        0.0252
     33 H           0.5144   -1.1925   -1.3661 H       1  UNL1        0.0522
     34 H           1.4005   -3.0093   -0.2489 H       1  UNL1        0.0621
     35 H           1.5294   -4.3948    1.7620 H       1  UNL1        0.0618
     36 H           0.8567   -3.4619    3.9539 H       1  UNL1        0.0618
     37 H           0.0685   -1.1538    4.0742 H       1  UNL1        0.0618
     38 H          -0.0617    0.2307    2.0795 H       1  UNL1        0.0621
     39 H           1.2794    2.0492    0.3641 H       1  UNL1        0.0621
     40 H           3.3851    3.2585   -0.0928 H       1  UNL1        0.0629
     41 H           4.8155   -0.0684   -2.3509 H       1  UNL1        0.0629
     42 H           2.7023   -1.2308   -1.8693 H       1  UNL1        0.0621
@<TRIPOS>BOND
     1     1     2    1
     2     2     3    1
     3     3     4    1
     4     4     5    2
     5     4     6    1
     6     6     7    1
     7     7     8    1
     8     4     9    1
     9     9    10    1
    10    10    11   ar
    11    11    12   ar
    12    12    13   ar
    13    13    14   ar
    14    14    15   ar
    15     9    16    1
    16    16    17   ar
    17    17    18   ar
    18    18    19   ar
    19    19    20    1
    20    19    21   ar
    21    21    22   ar
    22    15    10   ar
    23    22    16   ar
    24     1    23    1
    25     1    24    1
    26     1    25    1
    27     2    26    1
    28     2    27    1
    29     7    28    1
    30     7    29    1
    31     8    30    1
    32     8    31    1
    33     8    32    1
    34     9    33    1
    35    11    34    1
    36    12    35    1
    37    13    36    1
    38    14    37    1
    39    15    38    1
    40    17    39    1
    41    18    40    1
    42    21    41    1
    43    22    42    1
@<TRIPOS>MOLECULE
68288184
 53 56 0 0 0
SMALL
GASTEIGER

@<TRIPOS>ATOM
      1 C          -0.0810    3.7519   -1.2970 C.3     1  UNL1       -0.0422
      2 C          -0.1050    2.7904   -0.1351 C.3     1  UNL1        0.0490
      3 C          -1.4223    2.6162    0.4406 C.ar    1  UNL1       -0.0271
      4 C          -1.6075    1.7538    1.5044 C.ar    1  UNL1       -0.0541
      5 C          -2.8563    1.5893    2.0628 C.ar    1  UNL1       -0.0261
      6 C          -3.9444    2.2592    1.5958 C.ar    1  UNL1        0.1234
      7 F          -5.1771    2.0773    2.1684 F       1  UNL1       -0.2055
      8 C          -3.7807    3.1281    0.5306 C.ar    1  UNL1       -0.0261
      9 C          -2.5122    3.2948   -0.0346 C.ar    1  UNL1       -0.0541
     10 N           0.6061    1.5451   -0.4778 N.am    1  UNL1       -0.2864
     11 C           0.0915    0.6904   -1.5401 C.3     1  UNL1        0.0406
     12 C          -0.7842   -0.4008   -1.1343 C.ar    1  UNL1       -0.0293
     13 C          -0.2415   -1.6433   -0.8394 C.ar    1  UNL1       -0.0570
     14 C          -1.0220   -2.7097   -0.4570 C.ar    1  UNL1       -0.0607
     15 C          -2.3690   -2.6110   -0.3453 C.ar    1  UNL1       -0.0478
     16 C          -2.9629   -1.3832   -0.6318 C.ar    1  UNL1        0.0591
     17 C          -4.4022   -1.2524   -0.5168 C.2     1  UNL1        0.3368
     18 O          -4.9207   -0.1334   -0.7911 O.2     1  UNL1       -0.2451
     19 O          -5.2285   -2.2773   -0.1281 O.3     1  UNL1       -0.4771
     20 C          -2.1594   -0.3137   -1.0177 C.ar    1  UNL1       -0.0431
     21 C           1.7962    1.2903    0.2423 C.2     1  UNL1        0.2474
     22 O           2.1763    2.0957    1.1091 O.2     1  UNL1       -0.2700
     23 C           2.6281    0.1051    0.0235 C.ar    1  UNL1        0.0374
     24 C           3.3311   -0.0736   -1.1442 C.ar    1  UNL1       -0.0462
     25 C           4.1011   -1.1877   -1.3236 C.ar    1  UNL1       -0.0190
     26 C           4.1737   -2.1369   -0.3291 C.ar    1  UNL1        0.1238
     27 C           3.4879   -2.0191    0.8801 C.ar    1  UNL1       -0.0018
     28 C           2.7312   -0.8771    0.9990 C.ar    1  UNL1       -0.0429
     29 C           3.7832   -3.1976    1.7627 C.3     1  UNL1        0.0101
     30 C           5.0969   -3.6563    1.1073 C.3     1  UNL1        0.0937
     31 O           4.8759   -3.3398   -0.2718 O.3     1  UNL1       -0.4914
     32 H          -0.4810    4.7174   -0.9506 H       1  UNL1        0.0251
     33 H          -0.6624    3.4281   -2.1651 H       1  UNL1        0.0251
     34 H           0.9834    3.9383   -1.5774 H       1  UNL1        0.0251
     35 H           0.5417    3.2812    0.6649 H       1  UNL1        0.0548
     36 H          -0.7521    1.1895    1.9106 H       1  UNL1        0.0622
     37 H          -2.9711    0.9078    2.8891 H       1  UNL1        0.0646
     38 H          -4.6467    3.6481    0.1747 H       1  UNL1        0.0646
     39 H          -2.4882    3.9927   -0.8616 H       1  UNL1        0.0622
     40 H          -0.4588    1.3589   -2.2827 H       1  UNL1        0.0514
     41 H           0.9693    0.3440   -2.1460 H       1  UNL1        0.0514
     42 H           0.8021   -1.8168   -0.9131 H       1  UNL1        0.0621
     43 H          -0.5497   -3.6648   -0.2339 H       1  UNL1        0.0618
     44 H          -2.9962   -3.4531   -0.0420 H       1  UNL1        0.0626
     45 H          -6.2411   -2.2408   -0.1604 H       1  UNL1        0.2954
     46 H          -2.6508    0.6193   -1.2336 H       1  UNL1        0.0629
     47 H           3.2818    0.6759   -1.9216 H       1  UNL1        0.0626
     48 H           4.6758   -1.3545   -2.2503 H       1  UNL1        0.0654
     49 H           2.1745   -0.7353    1.9256 H       1  UNL1        0.0629
     50 H           3.9987   -2.8349    2.7733 H       1  UNL1        0.0347
     51 H           3.0142   -3.9675    1.6984 H       1  UNL1        0.0347
     52 H           5.9541   -3.0772    1.4640 H       1  UNL1        0.0700
     53 H           5.2003   -4.7309    1.2270 H       1  UNL1        0.0700
@<TRIPOS>BOND
     1     1     2    1
     2     2     3    1
     3     3     4   ar
     4     4     5   ar
     5     5     6   ar
     6     6     7    1
     7     6     8   ar
     8     8     9   ar
     9     2    10    1
    10    10    11    1
    11    11    12    1
    12    12    13   ar
    13    13    14   ar
    14    14    15   ar
    15    15    16   ar
    16    16    17    1
    17    17    18    2
    18    17    19    1
    19    16    20   ar
    20    10    21   am
    21    21    22    2
    22    21    23    1
    23    23    24   ar
    24    24    25   ar
    25    25    26   ar
    26    26    27   ar
    27    27    28   ar
    28    27    29    1
    29    29    30    1
    30    30    31    1
    31     9     3   ar
    32    20    12   ar
    33    28    23   ar
    34    31    26    1
    35     1    32    1
    36     1    33    1
    37     1    34    1
    38     2    35    1
    39     4    36    1
    40     5    37    1
    41     8    38    1
    42     9    39    1
    43    11    40    1
    44    11    41    1
    45    13    42    1
    46    14    43    1
    47    15    44    1
    48    19    45    1
    49    20    46    1
    50    24    47    1
    51    25    48    1
    52    28    49    1
    53    29    50    1
    54    29    51    1
    55    30    52    1
    56    30    53    1
@<TRIPOS>MOLECULE
66601188
 51 53 0 0 0
SMALL
GASTEIGER

@<TRIPOS>ATOM
      1 O           6.1489   -2.8139   -1.9750 O.2     1  UNL1       -0.2451
      2 C           5.2410   -3.1621   -1.1796 C.2     1  UNL1        0.3368
      3 O           5.1025   -4.5030   -0.8564 O.3     1  UNL1       -0.4771
      4 C           4.3381   -2.1473   -0.6018 C.ar    1  UNL1        0.0589
      5 C           4.4661   -0.8133   -0.9155 C.ar    1  UNL1       -0.0459
      6 C           3.6284    0.1468   -0.3824 C.ar    1  UNL1       -0.0343
      7 C           2.6212   -0.2012    0.4941 C.ar    1  UNL1        0.1088
      8 S           1.5522    1.0572    1.1726 S.O2    1  UNL1        0.0759
      9 O           2.4791    2.1600    1.4749 O.2     1  UNL1       -0.1497
     10 O           1.0829    0.3926    2.4961 O.2     1  UNL1       -0.1497
     11 N           0.2532    1.2978    0.1393 N.pl3   1  UNL1       -0.1833
     12 C          -0.5745    0.0396   -0.0122 C.3     1  UNL1        0.0493
     13 C          -1.6465    0.0510    1.0532 C.3     1  UNL1        0.0166
     14 N          -2.4508   -1.1480    0.9240 N.3     1  UNL1       -0.2964
     15 C          -3.4654   -1.1265    1.9405 C.3     1  UNL1        0.0225
     16 C          -4.2444   -2.4229    1.9853 C.3     1  UNL1        0.0604
     17 O          -3.6695   -3.4087    1.1967 O.3     1  UNL1       -0.3772
     18 C          -2.3077   -3.5375    1.4441 C.3     1  UNL1        0.0604
     19 C          -1.5778   -2.2841    1.0145 C.3     1  UNL1        0.0225
     20 C          -0.2324    2.3686   -0.6008 C.ar    1  UNL1        0.1589
     21 N          -1.3856    2.1576   -1.3490 N.ar    1  UNL1       -0.2368
     22 C          -1.9707    3.0627   -2.1027 C.ar    1  UNL1        0.0415
     23 C          -1.4902    4.3382   -2.2300 C.ar    1  UNL1        0.0744
     24 C          -2.1757    5.3356   -3.0897 C.3     1  UNL1        0.4189
     25 F          -3.4375    5.6455   -2.6249 F       1  UNL1       -0.1658
     26 F          -2.2203    4.7847   -4.3711 F       1  UNL1       -0.1658
     27 F          -1.3656    6.4581   -3.1842 F       1  UNL1       -0.1658
     28 C          -0.3485    4.6301   -1.5201 C.ar    1  UNL1       -0.0269
     29 C           0.2510    3.6393   -0.7244 C.ar    1  UNL1        0.0828
     30 CL          1.6805    4.0858    0.1268 Cl      1  UNL1       -0.0799
     31 C           2.4906   -1.5305    0.8093 C.ar    1  UNL1       -0.0343
     32 C           3.3347   -2.4997    0.2723 C.ar    1  UNL1       -0.0459
     33 H           5.9150   -5.1023   -0.7893 H       1  UNL1        0.2954
     34 H           5.2577   -0.5207   -1.6074 H       1  UNL1        0.0626
     35 H           3.7369    1.2093   -0.6375 H       1  UNL1        0.0637
     36 H           0.0339   -0.8486    0.1051 H       1  UNL1        0.0495
     37 H          -0.9926    0.0900   -1.0237 H       1  UNL1        0.0495
     38 H          -1.2005    0.0430    2.0571 H       1  UNL1        0.0442
     39 H          -2.2767    0.9654    0.9921 H       1  UNL1        0.0442
     40 H          -3.0110   -0.8789    2.9202 H       1  UNL1        0.0449
     41 H          -4.1777   -0.3086    1.7006 H       1  UNL1        0.0449
     42 H          -4.3376   -2.7179    3.0473 H       1  UNL1        0.0572
     43 H          -5.2888   -2.2720    1.5925 H       1  UNL1        0.0572
     44 H          -1.9435   -4.4143    0.8634 H       1  UNL1        0.0572
     45 H          -2.0742   -3.7494    2.5018 H       1  UNL1        0.0572
     46 H          -1.1849   -2.4822   -0.0222 H       1  UNL1        0.0449
     47 H          -0.6982   -2.1242    1.6646 H       1  UNL1        0.0449
     48 H          -2.8711    2.7940   -2.6485 H       1  UNL1        0.0836
     49 H           0.0889    5.6176   -1.5718 H       1  UNL1        0.0639
     50 H           1.7090   -1.8200    1.4962 H       1  UNL1        0.0637
     51 H           3.2083   -3.5328    0.5375 H       1  UNL1        0.0626
@<TRIPOS>BOND
     1     1     2    2
     2     2     3    1
     3     2     4    1
     4     4     5   ar
     5     5     6   ar
     6     6     7   ar
     7     7     8    1
     8     8     9    2
     9     8    10    2
    10     8    11    1
    11    11    12    1
    12    12    13    1
    13    13    14    1
    14    14    15    1
    15    15    16    1
    16    16    17    1
    17    17    18    1
    18    18    19    1
    19    11    20    1
    20    20    21   ar
    21    21    22   ar
    22    22    23   ar
    23    23    24    1
    24    24    25    1
    25    24    26    1
    26    24    27    1
    27    23    28   ar
    28    28    29   ar
    29    29    30    1
    30     7    31   ar
    31    31    32   ar
    32    32     4   ar
    33    19    14    1
    34    29    20   ar
    35     3    33    1
    36     5    34    1
    37     6    35    1
    38    12    36    1
    39    12    37    1
    40    13    38    1
    41    13    39    1
    42    15    40    1
    43    15    41    1
    44    16    42    1
    45    16    43    1
    46    18    44    1
    47    18    45    1
    48    19    46    1
    49    19    47    1
    50    22    48    1
    51    28    49    1
    52    31    50    1
    53    32    51    1
@<TRIPOS>MOLECULE
50254020
 45 45 0 0 0
SMALL
GASTEIGER

@<TRIPOS>ATOM
      1 C          -7.2153    0.6392   -0.5093 C.3     1  UNL1       -0.0440
      2 C          -5.7524    0.3866   -0.6707 C.2     1  UNL1       -0.0796
      3 C          -4.9072    1.3708   -1.3943 C.3     1  UNL1       -0.0440
      4 C          -5.2087   -0.6994   -0.1774 C.2     1  UNL1       -0.0850
      5 C          -3.7489   -0.9329   -0.3489 C.3     1  UNL1       -0.0308
      6 C          -3.1393   -1.0273    1.0154 C.3     1  UNL1       -0.0285
      7 C          -1.6509   -1.2651    0.9188 C.2     1  UNL1       -0.0748
      8 C          -1.0999   -2.4616    0.2422 C.3     1  UNL1       -0.0437
      9 C          -0.7831   -0.4046    1.4404 C.2     1  UNL1       -0.0681
     10 C           0.6797   -0.6465    1.3408 C.3     1  UNL1        0.0302
     11 N           1.3794    0.3862    0.6455 N.am    1  UNL1       -0.3115
     12 C           2.7840    0.2968    0.4694 C.2     1  UNL1        0.2176
     13 O           3.3572   -0.7151    0.9475 O.2     1  UNL1       -0.2755
     14 C           3.5588    1.3459   -0.2472 C.3     1  UNL1        0.0491
     15 C           4.9917    1.0425   -0.3074 C.ar    1  UNL1       -0.0385
     16 C           5.8633    1.4656    0.6799 C.ar    1  UNL1       -0.0567
     17 C           7.2151    1.1979    0.6543 C.ar    1  UNL1       -0.0431
     18 C           7.7360    0.4817   -0.3887 C.ar    1  UNL1        0.0410
     19 CL          9.4557    0.1523   -0.4025 Cl      1  UNL1       -0.0835
     20 C           6.8908    0.0414   -1.3968 C.ar    1  UNL1       -0.0431
     21 C           5.5199    0.3204   -1.3580 C.ar    1  UNL1       -0.0567
     22 H          -7.7989   -0.2881   -0.3913 H       1  UNL1        0.0274
     23 H          -7.6139    1.1941   -1.3639 H       1  UNL1        0.0274
     24 H          -7.4077    1.2587    0.4105 H       1  UNL1        0.0274
     25 H          -5.5381    2.2135   -1.6965 H       1  UNL1        0.0274
     26 H          -4.0725    1.6714   -0.7254 H       1  UNL1        0.0274
     27 H          -4.4375    0.9309   -2.2985 H       1  UNL1        0.0274
     28 H          -5.8251   -1.4194    0.3514 H       1  UNL1        0.0572
     29 H          -3.6338   -1.9222   -0.8453 H       1  UNL1        0.0310
     30 H          -3.2749   -0.1874   -0.9877 H       1  UNL1        0.0310
     31 H          -3.5558   -1.9543    1.4992 H       1  UNL1        0.0313
     32 H          -3.3621   -0.1949    1.6833 H       1  UNL1        0.0313
     33 H          -0.5202   -3.1146    0.9198 H       1  UNL1        0.0274
     34 H          -1.9672   -3.0797   -0.1041 H       1  UNL1        0.0274
     35 H          -0.5407   -2.2024   -0.6915 H       1  UNL1        0.0274
     36 H          -1.1887    0.4696    1.9353 H       1  UNL1        0.0587
     37 H           0.9148   -1.6644    0.9786 H       1  UNL1        0.0506
     38 H           1.0582   -0.6284    2.4062 H       1  UNL1        0.0506
     39 H           0.8520    1.2058    0.2684 H       1  UNL1        0.1490
     40 H           3.3156    2.3296    0.1883 H       1  UNL1        0.0407
     41 H           3.1786    1.3649   -1.2979 H       1  UNL1        0.0407
     42 H           5.4162    2.0325    1.4945 H       1  UNL1        0.0621
     43 H           7.8433    1.5685    1.4765 H       1  UNL1        0.0632
     44 H           7.3255   -0.5171   -2.2012 H       1  UNL1        0.0632
     45 H           4.9073   -0.0413   -2.1605 H       1  UNL1        0.0621
@<TRIPOS>BOND
     1     1     2    1
     2     2     3    1
     3     2     4    2
     4     4     5    1
     5     5     6    1
     6     6     7    1
     7     7     8    1
     8     7     9    2
     9     9    10    1
    10    10    11    1
    11    11    12   am
    12    12    13    2
    13    12    14    1
    14    14    15    1
    15    15    16   ar
    16    16    17   ar
    17    17    18   ar
    18    18    19    1
    19    18    20   ar
    20    20    21   ar
    21    21    15   ar
    22     1    22    1
    23     1    23    1
    24     1    24    1
    25     3    25    1
    26     3    26    1
    27     3    27    1
    28     4    28    1
    29     5    29    1
    30     5    30    1
    31     6    31    1
    32     6    32    1
    33     8    33    1
    34     8    34    1
    35     8    35    1
    36     9    36    1
    37    10    37    1
    38    10    38    1
    39    11    39    1
    40    14    40    1
    41    14    41    1
    42    16    42    1
    43    17    43    1
    44    20    44    1
    45    21    45    1
@<TRIPOS>MOLECULE
51355879
 107 110 0 0 0
SMALL
GASTEIGER

@<TRIPOS>ATOM
      1 C           3.6995   -3.1196    2.9899 C.2     1  UNL1       -0.0994
      2 C           3.6387   -3.6084    1.8307 C.2     1  UNL1       -0.0757
      3 C           3.3314   -4.9647    1.3661 C.3     1  UNL1       -0.0437
      4 C           3.7649   -2.5964    0.6648 C.3     1  UNL1       -0.0096
      5 C           4.8179   -2.9988   -0.2501 C.3     1  UNL1       -0.0420
      6 C           6.2361   -2.7739    0.1748 C.3     1  UNL1       -0.0314
      7 C           6.3295   -1.6209    1.0602 C.2     1  UNL1       -0.0759
      8 C           7.7080   -1.1741    1.5401 C.3     1  UNL1       -0.0438
      9 C           5.2946   -0.8883    1.5256 C.2     1  UNL1       -0.0768
     10 C           3.8948   -1.2333    1.1665 C.3     1  UNL1        0.0159
     11 C           3.3301   -0.2405    0.1975 C.ar    1  UNL1        0.0430
     12 C           4.1518    0.6073   -0.4792 C.ar    1  UNL1        0.1244
     13 O           5.5338    0.5699   -0.3794 O.3     1  UNL1       -0.5063
     14 C           3.5529    1.5294   -1.2905 C.ar    1  UNL1       -0.0162
     15 C           2.1527    1.6152   -1.4229 C.ar    1  UNL1       -0.0369
     16 C           1.6351    2.6505   -2.3287 C.3     1  UNL1       -0.0272
     17 C           1.3449    2.1363   -3.6662 C.3     1  UNL1       -0.0491
     18 C           0.8051    3.0796   -4.6600 C.3     1  UNL1       -0.0530
     19 C           1.5687    4.3296   -4.9745 C.3     1  UNL1       -0.0559
     20 C           1.6523    5.3315   -3.8591 C.3     1  UNL1       -0.0653
     21 C           1.3516    0.7040   -0.6763 C.ar    1  UNL1        0.0022
     22 C          -0.0614    0.8227   -0.8886 C.3     1  UNL1        0.0050
     23 C          -1.1221    0.5532    0.0600 C.ar    1  UNL1        0.0022
     24 C          -1.4174    1.3014    1.1903 C.ar    1  UNL1       -0.0369
     25 C          -0.4530    2.3616    1.6377 C.3     1  UNL1       -0.0272
     26 C          -0.8890    3.0157    2.9270 C.3     1  UNL1       -0.0491
     27 C          -2.0959    3.8826    2.8923 C.3     1  UNL1       -0.0530
     28 C          -2.6242    4.2756    4.2547 C.3     1  UNL1       -0.0559
     29 C          -1.7223    5.0698    5.1083 C.3     1  UNL1       -0.0653
     30 C          -2.5493    1.0630    1.8997 C.ar    1  UNL1       -0.0162
     31 C          -3.4365    0.0892    1.5139 C.ar    1  UNL1        0.1244
     32 O          -4.5989   -0.1217    2.2551 O.3     1  UNL1       -0.5063
     33 C          -3.2020   -0.6974    0.3873 C.ar    1  UNL1        0.0430
     34 C          -4.2692   -1.5930   -0.0284 C.3     1  UNL1        0.0159
     35 C          -4.8108   -2.3758    1.1015 C.2     1  UNL1       -0.0768
     36 C          -5.9852   -2.9445    0.9153 C.2     1  UNL1       -0.0759
     37 C          -6.6834   -3.7724    1.9309 C.3     1  UNL1       -0.0438
     38 C          -6.5310   -2.7157   -0.4546 C.3     1  UNL1       -0.0314
     39 C          -5.4671   -3.1743   -1.4312 C.3     1  UNL1       -0.0420
     40 C          -4.1632   -2.3699   -1.2415 C.3     1  UNL1       -0.0096
     41 C          -4.0744   -1.5880   -2.4997 C.2     1  UNL1       -0.0757
     42 C          -4.0855   -0.3741   -2.8096 C.2     1  UNL1       -0.0994
     43 C          -3.6388   -2.5224   -3.6935 C.3     1  UNL1       -0.0437
     44 C          -2.0323   -0.4352   -0.2804 C.ar    1  UNL1        0.1278
     45 O          -1.7214   -1.2194   -1.3565 O.3     1  UNL1       -0.5061
     46 C           1.9389   -0.1920    0.1034 C.ar    1  UNL1        0.1278
     47 O           1.1686   -1.1071    0.8337 O.3     1  UNL1       -0.5061
     48 H           3.5150   -3.8451    3.8495 H       1  UNL1        0.0534
     49 H           3.9610   -2.1569    3.3685 H       1  UNL1        0.0534
     50 H           2.4483   -4.9686    0.6444 H       1  UNL1        0.0274
     51 H           4.1316   -5.4265    0.8492 H       1  UNL1        0.0274
     52 H           2.9901   -5.5838    2.2432 H       1  UNL1        0.0274
     53 H           2.7626   -2.7105    0.1367 H       1  UNL1        0.0354
     54 H           4.6332   -2.4739   -1.2346 H       1  UNL1        0.0274
     55 H           4.7085   -4.0885   -0.5125 H       1  UNL1        0.0274
     56 H           6.8304   -2.5768   -0.7864 H       1  UNL1        0.0310
     57 H           6.7374   -3.6848    0.5982 H       1  UNL1        0.0310
     58 H           7.9475   -0.1483    1.1784 H       1  UNL1        0.0274
     59 H           7.6708   -1.2925    2.6377 H       1  UNL1        0.0274
     60 H           8.4568   -1.9065    1.1285 H       1  UNL1        0.0274
     61 H           5.5258   -0.0566    2.1570 H       1  UNL1        0.0578
     62 H           3.2897   -1.0748    2.1113 H       1  UNL1        0.0399
     63 H           6.0314    0.2249   -1.2303 H       1  UNL1        0.2921
     64 H           4.1867    2.1970   -1.8403 H       1  UNL1        0.0657
     65 H           0.8060    3.2305   -1.8556 H       1  UNL1        0.0313
     66 H           2.4694    3.4173   -2.4322 H       1  UNL1        0.0313
     67 H           0.6442    1.2364   -3.6821 H       1  UNL1        0.0268
     68 H           2.3132    1.7337   -4.1072 H       1  UNL1        0.0268
     69 H          -0.2675    3.3579   -4.4180 H       1  UNL1        0.0265
     70 H           0.7259    2.5248   -5.6559 H       1  UNL1        0.0265
     71 H           1.1879    4.8471   -5.8844 H       1  UNL1        0.0263
     72 H           2.6325    4.0358   -5.2743 H       1  UNL1        0.0263
     73 H           0.9836    5.0495   -3.0247 H       1  UNL1        0.0230
     74 H           1.2574    6.3341   -4.2254 H       1  UNL1        0.0230
     75 H           2.6808    5.5487   -3.5505 H       1  UNL1        0.0230
     76 H          -0.3380    1.8580   -1.3280 H       1  UNL1        0.0364
     77 H          -0.2433    0.2094   -1.8705 H       1  UNL1        0.0364
     78 H          -0.4611    3.1857    0.8454 H       1  UNL1        0.0313
     79 H           0.5793    2.0574    1.7135 H       1  UNL1        0.0313
     80 H          -0.8800    2.2662    3.7734 H       1  UNL1        0.0268
     81 H          -0.0237    3.7336    3.2025 H       1  UNL1        0.0268
     82 H          -2.8734    3.6108    2.1862 H       1  UNL1        0.0265
     83 H          -1.7566    4.9401    2.4747 H       1  UNL1        0.0265
     84 H          -2.8303    3.2806    4.7819 H       1  UNL1        0.0263
     85 H          -3.6230    4.7711    4.1471 H       1  UNL1        0.0263
     86 H          -2.1659    6.1014    5.2532 H       1  UNL1        0.0230
     87 H          -1.7953    4.6585    6.1741 H       1  UNL1        0.0230
     88 H          -0.6684    5.1017    4.8321 H       1  UNL1        0.0230
     89 H          -2.7717    1.6152    2.8347 H       1  UNL1        0.0657
     90 H          -4.4782   -0.0900    3.2928 H       1  UNL1        0.2921
     91 H          -5.1550   -0.8451   -0.2342 H       1  UNL1        0.0399
     92 H          -4.2848   -2.4920    2.0548 H       1  UNL1        0.0578
     93 H          -7.1385   -4.6700    1.3936 H       1  UNL1        0.0274
     94 H          -7.5575   -3.1940    2.2642 H       1  UNL1        0.0274
     95 H          -6.0034   -4.0702    2.7264 H       1  UNL1        0.0274
     96 H          -6.9045   -1.7028   -0.5977 H       1  UNL1        0.0310
     97 H          -7.4022   -3.4253   -0.5591 H       1  UNL1        0.0310
     98 H          -5.8829   -2.9057   -2.4669 H       1  UNL1        0.0274
     99 H          -5.3765   -4.2409   -1.3713 H       1  UNL1        0.0274
    100 H          -3.3955   -3.1390   -1.1999 H       1  UNL1        0.0354
    101 H          -4.0929    0.5784   -3.0704 H       1  UNL1        0.0534
    102 H          -4.3827   -0.6245   -4.1356 H       1  UNL1        0.0534
    103 H          -4.0844   -2.1603   -4.6010 H       1  UNL1        0.0274
    104 H          -2.5470   -2.3004   -3.7216 H       1  UNL1        0.0274
    105 H          -3.7276   -3.5400   -3.4077 H       1  UNL1        0.0274
    106 H          -1.2446   -2.1046   -1.2306 H       1  UNL1        0.2922
    107 H           0.9820   -0.7732    1.7994 H       1  UNL1        0.2922
@<TRIPOS>BOND
     1     1     2    2
     2     2     3    1
     3     2     4    1
     4     4     5    1
     5     5     6    1
     6     6     7    1
     7     7     8    1
     8     7     9    2
     9     9    10    1
    10    10    11    1
    11    11    12   ar
    12    12    13    1
    13    12    14   ar
    14    14    15   ar
    15    15    16    1
    16    16    17    1
    17    17    18    1
    18    18    19    1
    19    19    20    1
    20    15    21   ar
    21    21    22    1
    22    22    23    1
    23    23    24   ar
    24    24    25    1
    25    25    26    1
    26    26    27    1
    27    27    28    1
    28    28    29    1
    29    24    30   ar
    30    30    31   ar
    31    31    32    1
    32    31    33   ar
    33    33    34    1
    34    34    35    1
    35    35    36    2
    36    36    37    1
    37    36    38    1
    38    38    39    1
    39    39    40    1
    40    40    41    1
    41    41    42    2
    42    41    43    1
    43    33    44   ar
    44    44    45    1
    45    21    46   ar
    46    46    47    1
    47    10     4    1
    48    46    11   ar
    49    44    23   ar
    50    40    34    1
    51     1    48    1
    52     1    49    1
    53     3    50    1
    54     3    51    1
    55     3    52    1
    56     4    53    1
    57     5    54    1
    58     5    55    1
    59     6    56    1
    60     6    57    1
    61     8    58    1
    62     8    59    1
    63     8    60    1
    64     9    61    1
    65    10    62    1
    66    13    63    1
    67    14    64    1
    68    16    65    1
    69    16    66    1
    70    17    67    1
    71    17    68    1
    72    18    69    1
    73    18    70    1
    74    19    71    1
    75    19    72    1
    76    20    73    1
    77    20    74    1
    78    20    75    1
    79    22    76    1
    80    22    77    1
    81    25    78    1
    82    25    79    1
    83    26    80    1
    84    26    81    1
    85    27    82    1
    86    27    83    1
    87    28    84    1
    88    28    85    1
    89    29    86    1
    90    29    87    1
    91    29    88    1
    92    30    89    1
    93    32    90    1
    94    34    91    1
    95    35    92    1
    96    37    93    1
    97    37    94    1
    98    37    95    1
    99    38    96    1
   100    38    97    1
   101    39    98    1
   102    39    99    1
   103    40   100    1
   104    42   101    1
   105    42   102    1
   106    43   103    1
   107    43   104    1
   108    43   105    1
   109    45   106    1
   110    47   107    1
@<TRIPOS>MOLECULE
CHEMBL173443
 48 49 0 0 0
SMALL
GASTEIGER

@<TRIPOS>ATOM
      1 C           6.1487    0.5114    2.3398 C.3     1  UNL1       -0.0653
      2 C           6.3024    0.2023    0.8656 C.3     1  UNL1       -0.0559
      3 C           5.2495    0.9080    0.0436 C.3     1  UNL1       -0.0530
      4 C           5.4500    0.5653   -1.4088 C.3     1  UNL1       -0.0491
      5 C           4.4035    1.2600   -2.2774 C.3     1  UNL1       -0.0277
      6 C           3.0399    0.8310   -1.8757 C.ar    1  UNL1       -0.0473
      7 C           2.2878    1.4753   -0.9175 C.ar    1  UNL1       -0.0580
      8 C           1.0057    1.0356   -0.5701 C.ar    1  UNL1       -0.0543
      9 C           0.4818   -0.0740   -1.2057 C.ar    1  UNL1       -0.0249
     10 C          -0.8476   -0.5926   -0.8983 C.2     1  UNL1       -0.0497
     11 C          -1.6671   -0.0751   -0.0095 C.2     1  UNL1        0.0010
     12 C          -2.9622   -0.7008    0.1894 C.2     1  UNL1        0.2411
     13 O          -3.2968   -1.7085   -0.4657 O.2     1  UNL1       -0.2705
     14 N          -3.8695   -0.1419    1.1615 N.am    1  UNL1       -0.2812
     15 C          -5.1305   -0.7776    1.3333 C.ar    1  UNL1        0.0477
     16 C          -5.2923   -1.7984    2.2610 C.ar    1  UNL1       -0.0397
     17 C          -6.5173   -2.4031    2.4157 C.ar    1  UNL1       -0.0600
     18 C          -7.6278   -2.0389    1.6761 C.ar    1  UNL1       -0.0609
     19 C          -7.4659   -1.0248    0.7549 C.ar    1  UNL1       -0.0460
     20 C          -6.2297   -0.4032    0.5878 C.ar    1  UNL1        0.0800
     21 C          -6.0509    0.6709   -0.3855 C.2     1  UNL1        0.3386
     22 O          -7.0156    1.0702   -1.1079 O.2     1  UNL1       -0.2451
     23 O          -4.8291    1.2979   -0.5629 O.3     1  UNL1       -0.4771
     24 C           1.2531   -0.7115   -2.1690 C.ar    1  UNL1       -0.0543
     25 C           2.5081   -0.2777   -2.5062 C.ar    1  UNL1       -0.0580
     26 H           6.5023    1.5212    2.5812 H       1  UNL1        0.0230
     27 H           5.0631    0.3919    2.5851 H       1  UNL1        0.0230
     28 H           6.7520   -0.2443    2.8845 H       1  UNL1        0.0230
     29 H           7.2996    0.5528    0.5074 H       1  UNL1        0.0263
     30 H           6.2534   -0.8955    0.7529 H       1  UNL1        0.0263
     31 H           5.3966    2.0024    0.1829 H       1  UNL1        0.0265
     32 H           4.2289    0.6753    0.3731 H       1  UNL1        0.0265
     33 H           5.3079   -0.5325   -1.5245 H       1  UNL1        0.0268
     34 H           6.4644    0.8048   -1.7205 H       1  UNL1        0.0268
     35 H           4.5316    2.3577   -2.0827 H       1  UNL1        0.0313
     36 H           4.6028    1.0209   -3.3396 H       1  UNL1        0.0313
     37 H           2.6855    2.3320   -0.4229 H       1  UNL1        0.0620
     38 H           0.4478    1.5688    0.1870 H       1  UNL1        0.0624
     39 H          -1.1728   -1.4774   -1.4560 H       1  UNL1        0.0625
     40 H          -1.3649    0.7894    0.5440 H       1  UNL1        0.0670
     41 H          -3.5454    0.6876    1.6734 H       1  UNL1        0.1551
     42 H          -4.4161   -2.0984    2.8567 H       1  UNL1        0.0636
     43 H          -6.6516   -3.1998    3.1370 H       1  UNL1        0.0618
     44 H          -8.5989   -2.5114    1.7922 H       1  UNL1        0.0618
     45 H          -8.2925   -0.6768    0.1303 H       1  UNL1        0.0626
     46 H          -4.7511    2.2415   -0.9510 H       1  UNL1        0.2954
     47 H           0.8565   -1.5978   -2.6888 H       1  UNL1        0.0624
     48 H           3.0728   -0.8122   -3.2682 H       1  UNL1        0.0620
@<TRIPOS>BOND
     1     1     2    1
     2     2     3    1
     3     3     4    1
     4     4     5    1
     5     5     6    1
     6     6     7   ar
     7     7     8   ar
     8     8     9   ar
     9     9    10    1
    10    10    11    2
    11    11    12    1
    12    12    13    2
    13    12    14   am
    14    14    15    1
    15    15    16   ar
    16    16    17   ar
    17    17    18   ar
    18    18    19   ar
    19    19    20   ar
    20    20    21    1
    21    21    22    2
    22    21    23    1
    23     9    24   ar
    24    24    25   ar
    25    25     6   ar
    26    20    15   ar
    27     1    26    1
    28     1    27    1
    29     1    28    1
    30     2    29    1
    31     2    30    1
    32     3    31    1
    33     3    32    1
    34     4    33    1
    35     4    34    1
    36     5    35    1
    37     5    36    1
    38     7    37    1
    39     8    38    1
    40    10    39    1
    41    11    40    1
    42    14    41    1
    43    16    42    1
    44    17    43    1
    45    18    44    1
    46    19    45    1
    47    23    46    1
    48    24    47    1
    49    25    48    1
@<TRIPOS>MOLECULE
166636197
 41 42 0 0 0
SMALL
GASTEIGER

@<TRIPOS>ATOM
      1 C          -2.6645    4.2672   -3.4276 C.3     1  UNL1       -0.0306
      2 C          -2.2738    4.5051   -1.9750 C.3     1  UNL1        0.0900
      3 O          -2.3230    3.4168   -1.1396 O.3     1  UNL1       -0.4610
      4 C          -1.3124    2.3301   -1.2453 C.2     1  UNL1        0.3487
      5 O          -0.5424    2.6286   -2.1587 O.2     1  UNL1       -0.2443
      6 C          -1.3985    1.2648   -0.3906 C.ar    1  UNL1        0.1318
      7 S          -2.8464    0.9834    0.8039 S.2     1  UNL1       -0.0595
      8 C          -2.0219   -0.4801    1.6328 C.ar    1  UNL1        0.1105
      9 C          -2.5030   -1.2325    2.7497 C.ar    1  UNL1        0.0099
     10 C          -1.8674   -2.4167    3.0536 C.ar    1  UNL1       -0.0519
     11 C          -2.2451   -3.1752    4.1851 C.ar    1  UNL1       -0.0584
     12 C          -3.2633   -2.7003    4.9597 C.ar    1  UNL1       -0.0264
     13 C          -3.9212   -1.5010    4.6739 C.ar    1  UNL1        0.1240
     14 F          -4.8973   -1.0918    5.4970 F       1  UNL1       -0.2055
     15 C          -3.5209   -0.7890    3.5614 C.ar    1  UNL1       -0.0168
     16 N          -1.0192   -0.4433    0.9447 N.ar    1  UNL1       -0.2299
     17 C          -0.5554    0.2145    0.0426 C.ar    1  UNL1        0.1353
     18 C           0.8356    0.1116   -0.4802 C.1     1  UNL1       -0.0451
     19 C           1.9608    0.0204   -0.9223 C.1     1  UNL1       -0.0954
     20 C           3.3344   -0.0647   -1.4596 C.3     1  UNL1        0.0100
     21 C           3.8187   -1.4022   -0.8171 C.3     1  UNL1       -0.0321
     22 C           5.1406   -1.8635   -1.0559 C.3     1  UNL1        0.0456
     23 C           5.6378   -2.2505   -2.3578 C.2     1  UNL1        0.3047
     24 O           6.4971   -2.9534   -2.7481 O.2     1  UNL1       -0.2510
     25 O           4.8677   -1.5842   -3.4603 O.3     1  UNL1       -0.4806
     26 H          -2.4778    5.2721   -3.9298 H       1  UNL1        0.0262
     27 H          -3.7869    4.1267   -3.5059 H       1  UNL1        0.0262
     28 H          -2.0834    3.4660   -3.8363 H       1  UNL1        0.0262
     29 H          -1.2923    5.0713   -1.9704 H       1  UNL1        0.0695
     30 H          -2.9990    5.2597   -1.5389 H       1  UNL1        0.0695
     31 H          -1.0546   -2.7808    2.4429 H       1  UNL1        0.0624
     32 H          -1.7490   -4.1018    4.3985 H       1  UNL1        0.0619
     33 H          -3.6376   -3.2620    5.8320 H       1  UNL1        0.0646
     34 H          -3.9988    0.1740    3.3559 H       1  UNL1        0.0653
     35 H           3.4161   -0.1351   -2.5026 H       1  UNL1        0.0398
     36 H           3.9392    0.7325   -0.9726 H       1  UNL1        0.0398
     37 H           3.0386   -2.1343   -1.2309 H       1  UNL1        0.0279
     38 H           3.6104   -1.3230    0.2927 H       1  UNL1        0.0279
     39 H           5.9086   -1.2716   -0.4571 H       1  UNL1        0.0378
     40 H           5.1992   -2.9018   -0.4513 H       1  UNL1        0.0378
     41 H           5.0504   -1.9861   -4.3923 H       1  UNL1        0.2951
@<TRIPOS>BOND
     1     1     2    1
     2     2     3    1
     3     3     4    1
     4     4     5    2
     5     4     6    1
     6     6     7   ar
     7     7     8   ar
     8     8     9    1
     9     9    10   ar
    10    10    11   ar
    11    11    12   ar
    12    12    13   ar
    13    13    14    1
    14    13    15   ar
    15     8    16   ar
    16    16    17   ar
    17    17    18    1
    18    18    19    3
    19    19    20    1
    20    20    21    1
    21    21    22    1
    22    22    23    1
    23    23    24    2
    24    23    25    1
    25    17     6   ar
    26    15     9   ar
    27     1    26    1
    28     1    27    1
    29     1    28    1
    30     2    29    1
    31     2    30    1
    32    10    31    1
    33    11    32    1
    34    12    33    1
    35    15    34    1
    36    20    35    1
    37    20    36    1
    38    21    37    1
    39    21    38    1
    40    22    39    1
    41    22    40    1
    42    25    41    1
@<TRIPOS>MOLECULE
50542851
 48 50 0 0 0
SMALL
GASTEIGER

@<TRIPOS>ATOM
      1 C           0.4276    1.7414   -2.0967 C.3     1  UNL1       -0.0422
      2 C          -0.5260    0.9196   -1.2764 C.3     1  UNL1        0.0498
      3 C          -1.0958    1.8067   -0.2520 C.ar    1  UNL1       -0.0259
      4 C          -1.6706    2.9858   -0.7464 C.ar    1  UNL1       -0.0567
      5 C          -2.2525    3.9072    0.0940 C.ar    1  UNL1       -0.0601
      6 C          -2.2785    3.6792    1.4593 C.ar    1  UNL1       -0.0434
      7 C          -1.7231    2.5344    1.9638 C.ar    1  UNL1        0.0413
      8 CL         -1.7586    2.2533    3.6899 Cl      1  UNL1       -0.0835
      9 C          -1.1456    1.6284    1.0851 C.ar    1  UNL1       -0.0384
     10 N          -0.0479   -0.3483   -0.8525 N.am    1  UNL1       -0.2751
     11 C           1.0580   -0.6079   -0.0396 C.2     1  UNL1        0.2480
     12 O           1.2932   -1.8554    0.2366 O.2     1  UNL1       -0.2699
     13 C           1.9996    0.3020    0.5507 C.ar    1  UNL1        0.0369
     14 C           2.0273    0.5666    1.9078 C.ar    1  UNL1       -0.0496
     15 C           2.9408    1.4203    2.4916 C.ar    1  UNL1       -0.0610
     16 C           3.8862    2.0549    1.6953 C.ar    1  UNL1       -0.0617
     17 C           3.8838    1.8136    0.3503 C.ar    1  UNL1       -0.0610
     18 C           2.9528    0.9508   -0.2006 C.ar    1  UNL1       -0.0496
     19 C          -0.7631   -1.5569   -1.3434 C.3     1  UNL1        0.1294
     20 C           0.0997   -2.2986   -2.2839 C.2     1  UNL1        0.2356
     21 N          -0.3288   -3.3886   -3.0662 N.am    1  UNL1       -0.3275
     22 O           1.3168   -1.9207   -2.3946 O.2     1  UNL1       -0.2736
     23 C          -1.1561   -2.4207   -0.2368 C.ar    1  UNL1       -0.0001
     24 C          -0.7771   -3.7379   -0.1929 C.ar    1  UNL1       -0.0535
     25 C          -1.1540   -4.5857    0.8564 C.ar    1  UNL1       -0.0433
     26 C          -1.9275   -4.0985    1.8825 C.ar    1  UNL1        0.0276
     27 N          -2.2997   -2.8173    1.8463 N.ar    1  UNL1       -0.2629
     28 C          -1.9409   -2.0032    0.8429 C.ar    1  UNL1        0.0330
     29 H           1.1396    1.1558   -2.6800 H       1  UNL1        0.0251
     30 H          -0.1905    2.3085   -2.8556 H       1  UNL1        0.0251
     31 H           0.9133    2.5329   -1.4528 H       1  UNL1        0.0251
     32 H          -1.4326    0.7261   -1.9655 H       1  UNL1        0.0548
     33 H          -1.6775    3.2099   -1.8021 H       1  UNL1        0.0621
     34 H          -2.6918    4.8167   -0.3453 H       1  UNL1        0.0618
     35 H          -2.7415    4.4149    2.1000 H       1  UNL1        0.0632
     36 H          -0.7368    0.7402    1.4965 H       1  UNL1        0.0635
     37 H           1.3009    0.0890    2.5903 H       1  UNL1        0.0625
     38 H           2.9678    1.6320    3.5456 H       1  UNL1        0.0618
     39 H           4.6263    2.7360    2.1048 H       1  UNL1        0.0618
     40 H           4.6231    2.3093   -0.2762 H       1  UNL1        0.0618
     41 H           3.0198    0.8093   -1.2541 H       1  UNL1        0.0625
     42 H          -1.6411   -1.2240   -1.9518 H       1  UNL1        0.0648
     43 H           0.2964   -3.8832   -3.7250 H       1  UNL1        0.1450
     44 H          -1.3128   -3.7177   -2.9880 H       1  UNL1        0.1450
     45 H          -0.1669   -4.2137   -0.9386 H       1  UNL1        0.0622
     46 H          -0.8415   -5.6291    0.8704 H       1  UNL1        0.0633
     47 H          -2.2271   -4.7541    2.7092 H       1  UNL1        0.0829
     48 H          -2.2669   -0.9832    0.8480 H       1  UNL1        0.0833
@<TRIPOS>BOND
     1     1     2    1
     2     2     3    1
     3     3     4   ar
     4     4     5   ar
     5     5     6   ar
     6     6     7   ar
     7     7     8    1
     8     7     9   ar
     9     2    10    1
    10    10    11   am
    11    11    12    2
    12    11    13    1
    13    13    14   ar
    14    14    15   ar
    15    15    16   ar
    16    16    17   ar
    17    17    18   ar
    18    10    19    1
    19    19    20    1
    20    20    21   am
    21    20    22    2
    22    19    23    1
    23    23    24   ar
    24    24    25   ar
    25    25    26   ar
    26    26    27   ar
    27    27    28   ar
    28     9     3   ar
    29    18    13   ar
    30    28    23   ar
    31     1    29    1
    32     1    30    1
    33     1    31    1
    34     2    32    1
    35     4    33    1
    36     5    34    1
    37     6    35    1
    38     9    36    1
    39    14    37    1
    40    15    38    1
    41    16    39    1
    42    17    40    1
    43    18    41    1
    44    19    42    1
    45    21    43    1
    46    21    44    1
    47    24    45    1
    48    25    46    1
    49    26    47    1
    50    28    48    1
@<TRIPOS>MOLECULE
51345610
 57 61 0 0 0
SMALL
GASTEIGER

@<TRIPOS>ATOM
      1 C          -2.3358   -4.2295   -0.1840 C.3     2  UNK2       -0.0626
      2 C          -2.6010   -2.8803    0.5333 C.3     2  UNK2       -0.0447
      3 C          -3.8011   -2.2947   -0.2295 C.3     2  UNK2       -0.0626
      4 C          -1.3824   -2.0706    0.3055 C.3     2  UNK2       -0.0264
      5 C          -1.2674   -0.7279    0.8749 C.3     2  UNK2        0.0674
      6 C          -2.2490    0.3019    0.5108 C.ar    2  UNK2        0.0410
      7 N          -3.5304    0.5166    0.9267 N.ar    2  UNK2       -0.3562
      8 C          -4.0419    1.5881    0.3334 C.ar    2  UNK2        0.0470
      9 C          -5.2739    2.2277    0.3986 C.ar    2  UNK2       -0.0378
     10 C          -5.5566    3.3606   -0.3457 C.ar    2  UNK2       -0.0598
     11 C          -4.6034    3.8833   -1.1796 C.ar    2  UNK2       -0.0611
     12 C          -3.3796    3.2692   -1.2609 C.ar    2  UNK2       -0.0523
     13 C          -3.1089    2.1426   -0.5160 C.ar    2  UNK2        0.0032
     14 C          -1.9846    1.3113   -0.3848 C.ar    2  UNK2       -0.0151
     15 C          -0.6924    1.5064   -1.0931 C.3     2  UNK2        0.0019
     16 C           0.0999    0.2218   -0.9751 C.3     2  UNK2        0.1069
     17 C           1.4902    0.3990   -1.4503 C.2     2  UNK2        0.2345
     18 O           1.6893    1.0480   -2.4991 O.2     2  UNK2       -0.2737
     19 N           2.5553   -0.1623   -0.7194 N.am    1  PHE1       -0.3021
     20 CA          2.4967   -0.2416    0.7015 C.3     1  PHE1        0.1036
     21 CB          3.4516    0.8063    1.2620 C.3     1  PHE1       -0.0007
     22 CG          4.8018    0.4681    0.7485 C.ar    1  PHE1       -0.0451
     23 CD1         5.6281   -0.3745    1.4596 C.ar    1  PHE1       -0.0585
     24 CE1         6.8889   -0.7104    1.0124 C.ar    1  PHE1       -0.0615
     25 CZ          7.3601   -0.2085   -0.1667 C.ar    1  PHE1       -0.0617
     26 CE2         6.5427    0.6398   -0.8940 C.ar    1  PHE1       -0.0615
     27 CD2         5.2788    0.9743   -0.4423 C.ar    1  PHE1       -0.0585
     28 C           1.1394   -0.0870    1.2559 C.2     1  PHE1        0.2374
     29 O           0.9391    0.1371    2.4728 O.2     1  PHE1       -0.2735
     30 N           0.0297   -0.1918    0.4058 N.am    2  UNK2       -0.2796
     31 H          -2.9628   -5.0229    0.2232 H       2  UNK2        0.0232
     32 H          -1.2773   -4.5271   -0.0586 H       2  UNK2        0.0232
     33 H          -2.5017   -4.1159   -1.2721 H       2  UNK2        0.0232
     34 H          -2.8300   -3.1378    1.5648 H       2  UNK2        0.0296
     35 H          -4.5893   -2.0335    0.4814 H       2  UNK2        0.0232
     36 H          -4.2790   -3.0860   -0.8899 H       2  UNK2        0.0232
     37 H          -3.4961   -1.5139   -0.9381 H       2  UNK2        0.0232
     38 H          -1.1587   -2.1397   -0.7978 H       2  UNK2        0.0289
     39 H          -0.5245   -2.6798    0.7479 H       2  UNK2        0.0289
     40 H          -1.1677   -0.8092    2.0038 H       2  UNK2        0.0565
     41 H          -4.0710   -0.0425    1.6121 H       2  UNK2        0.1657
     42 H          -6.0228    1.8089    1.0601 H       2  UNK2        0.0638
     43 H          -6.5366    3.8541   -0.2820 H       2  UNK2        0.0618
     44 H          -4.8651    4.7770   -1.7493 H       2  UNK2        0.0618
     45 H          -2.6324    3.6776   -1.9136 H       2  UNK2        0.0624
     46 H          -0.1260    2.2812   -0.5073 H       2  UNK2        0.0337
     47 H          -0.8306    1.8148   -2.1481 H       2  UNK2        0.0337
     48 H          -0.3909   -0.5560   -1.6371 H       2  UNK2        0.0600
     49 H           3.4273   -0.5381   -1.2069 H       1  PHE1        0.1495
     50 HA          2.8616   -1.2532    1.0459 H       1  PHE1        0.0598
     51 HB1         3.4230    0.8473    2.3643 H       1  PHE1        0.0336
     52 HB2         3.1437    1.7895    0.8032 H       1  PHE1        0.0336
     53 HD1         5.3292   -0.8186    2.4105 H       1  PHE1        0.0620
     54 HE1         7.5196   -1.3850    1.6061 H       1  PHE1        0.0618
     55 HZ          8.3573   -0.4904   -0.4941 H       1  PHE1        0.0618
     56 HE2         6.9491    1.0238   -1.8323 H       1  PHE1        0.0618
     57 HD2         4.6685    1.6524   -1.0574 H       1  PHE1        0.0620
@<TRIPOS>BOND
     1     1     2    1
     2     2     3    1
     3     2     4    1
     4     4     5    1
     5     5     6    1
     6     6     7   ar
     7     7     8   ar
     8     8     9   ar
     9     9    10   ar
    10    10    11   ar
    11    11    12   ar
    12    12    13   ar
    13    13    14   ar
    14    14    15    1
    15    15    16    1
    16    16    17    1
    17    17    18    2
    18    17    19   am
    19    19    20    1
    20    20    21    1
    21    21    22    1
    22    22    23   ar
    23    23    24   ar
    24    24    25   ar
    25    25    26   ar
    26    26    27   ar
    27    20    28    1
    28    28    29    2
    29    28    30   am
    30    30     5    1
    31    14     6   ar
    32    30    16    1
    33    13     8   ar
    34    27    22   ar
    35     1    31    1
    36     1    32    1
    37     1    33    1
    38     2    34    1
    39     3    35    1
    40     3    36    1
    41     3    37    1
    42     4    38    1
    43     4    39    1
    44     5    40    1
    45     7    41    1
    46     9    42    1
    47    10    43    1
    48    11    44    1
    49    12    45    1
    50    15    46    1
    51    15    47    1
    52    16    48    1
    53    19    49    1
    54    20    50    1
    55    21    51    1
    56    21    52    1
    57    23    53    1
    58    24    54    1
    59    25    55    1
    60    26    56    1
    61    27    57    1
@<TRIPOS>MOLECULE
51078694
 32 33 0 0 0
SMALL
GASTEIGER

@<TRIPOS>ATOM
      1 C           5.3453    0.2395   -0.4422 C.3     1  UNL1       -0.0650
      2 C           3.9064    0.7053   -0.3871 C.3     1  UNL1       -0.0523
      3 C           3.1367   -0.1641    0.6074 C.3     1  UNL1       -0.0313
      4 C           1.7290    0.3577    0.6043 C.2     1  UNL1       -0.0409
      5 C           0.6937   -0.4044    0.2667 C.2     1  UNL1        0.1360
      6 O           0.8298   -1.7399   -0.1091 O.3     1  UNL1       -0.4220
      7 C          -0.4402   -2.2151   -0.3888 C.2     1  UNL1        0.3454
      8 O          -0.7224   -3.3767   -0.7600 O.2     1  UNL1       -0.2445
      9 C          -1.4102   -1.1477   -0.1838 C.ar    1  UNL1        0.0729
     10 C          -2.7822   -1.0537   -0.3082 C.ar    1  UNL1       -0.0355
     11 C          -3.5683   -2.2549   -0.7468 C.3     1  UNL1       -0.0389
     12 C          -3.4378    0.1402   -0.0314 C.ar    1  UNL1       -0.0551
     13 C          -2.7511    1.2495    0.3693 C.ar    1  UNL1       -0.0495
     14 C          -3.4753    2.5045    0.6564 C.3     1  UNL1       -0.0397
     15 C          -1.3893    1.1636    0.4949 C.ar    1  UNL1       -0.0474
     16 C          -0.7132   -0.0032    0.2283 C.ar    1  UNL1        0.0315
     17 H           6.0075    1.1024   -0.6710 H       1  UNL1        0.0230
     18 H           5.4252   -0.5036   -1.2547 H       1  UNL1        0.0230
     19 H           5.6310   -0.1843    0.5197 H       1  UNL1        0.0230
     20 H           3.4458    0.6884   -1.3791 H       1  UNL1        0.0266
     21 H           3.9143    1.7639   -0.0493 H       1  UNL1        0.0266
     22 H           3.1662   -1.1960    0.2026 H       1  UNL1        0.0308
     23 H           3.6034   -0.1307    1.5862 H       1  UNL1        0.0308
     24 H           1.5056    1.3783    0.8781 H       1  UNL1        0.0609
     25 H          -3.6333   -2.9570    0.1150 H       1  UNL1        0.0278
     26 H          -3.0926   -2.7467   -1.6257 H       1  UNL1        0.0278
     27 H          -4.5852   -1.9101   -1.0349 H       1  UNL1        0.0278
     28 H          -4.5228    0.1193   -0.1577 H       1  UNL1        0.0623
     29 H          -2.7778    3.2851    1.0194 H       1  UNL1        0.0278
     30 H          -3.9582    2.9139   -0.2728 H       1  UNL1        0.0278
     31 H          -4.2341    2.3419    1.4452 H       1  UNL1        0.0278
     32 H          -0.8456    2.0344    0.8099 H       1  UNL1        0.0627
@<TRIPOS>BOND
     1     1     2    1
     2     2     3    1
     3     3     4    1
     4     4     5    2
     5     5     6    1
     6     6     7    1
     7     7     8    2
     8     7     9    1
     9     9    10   ar
    10    10    11    1
    11    10    12   ar
    12    12    13   ar
    13    13    14    1
    14    13    15   ar
    15    15    16   ar
    16    16     5    1
    17    16     9   ar
    18     1    17    1
    19     1    18    1
    20     1    19    1
    21     2    20    1
    22     2    21    1
    23     3    22    1
    24     3    23    1
    25     4    24    1
    26    11    25    1
    27    11    26    1
    28    11    27    1
    29    12    28    1
    30    14    29    1
    31    14    30    1
    32    14    31    1
    33    15    32    1
@<TRIPOS>MOLECULE
51027997
 40 41 0 0 0
SMALL
GASTEIGER

@<TRIPOS>ATOM
      1 C           6.3727   -0.9447    0.0505 C.3     1  UNL1       -0.0397
      2 C           4.9355   -0.5580    0.1185 C.ar    1  UNL1       -0.0504
      3 C           4.0636   -0.8065   -0.9229 C.ar    1  UNL1       -0.0581
      4 C           2.7360   -0.4484   -0.8581 C.ar    1  UNL1       -0.0475
      5 C           2.2206    0.1763    0.2557 C.ar    1  UNL1        0.0594
      6 C           0.8084    0.5629    0.3373 C.2     1  UNL1        0.3444
      7 O           0.3885    1.1310    1.3774 O.2     1  UNL1       -0.2445
      8 O          -0.0763    0.3228   -0.6926 O.3     1  UNL1       -0.4221
      9 C          -1.3963    0.7212   -0.5332 C.ar    1  UNL1        0.1356
     10 C          -1.8145    1.9853   -0.9234 C.ar    1  UNL1       -0.0160
     11 C          -3.1259    2.3846   -0.7664 C.ar    1  UNL1       -0.0470
     12 C          -3.5934    3.7400   -1.1802 C.3     1  UNL1       -0.0396
     13 C          -4.0011    1.4774   -0.2069 C.ar    1  UNL1       -0.0583
     14 C          -3.5783    0.2216    0.1790 C.ar    1  UNL1       -0.0546
     15 C          -2.2703   -0.1879    0.0267 C.ar    1  UNL1       -0.0024
     16 C          -1.8326   -1.5459    0.4487 C.3     1  UNL1       -0.0180
     17 C          -1.9892   -2.5237   -0.7048 C.3     1  UNL1       -0.0585
     18 C          -2.6661   -2.0715    1.5922 C.3     1  UNL1       -0.0585
     19 C           3.0667    0.4332    1.3015 C.ar    1  UNL1       -0.0475
     20 C           4.3942    0.0690    1.2230 C.ar    1  UNL1       -0.0581
     21 H           6.5120   -1.7312    0.8315 H       1  UNL1        0.0278
     22 H           6.5804   -1.3053   -0.9658 H       1  UNL1        0.0278
     23 H           7.0441   -0.1079    0.3160 H       1  UNL1        0.0278
     24 H           4.4474   -1.2971   -1.8091 H       1  UNL1        0.0620
     25 H           2.0650   -0.6585   -1.7019 H       1  UNL1        0.0626
     26 H          -1.1131    2.6909   -1.3635 H       1  UNL1        0.0657
     27 H          -4.2967    3.7028   -2.0184 H       1  UNL1        0.0278
     28 H          -4.0988    4.2643   -0.3236 H       1  UNL1        0.0278
     29 H          -2.6906    4.3613   -1.4067 H       1  UNL1        0.0278
     30 H          -5.0285    1.8139   -0.0931 H       1  UNL1        0.0620
     31 H          -4.2880   -0.4636    0.6132 H       1  UNL1        0.0622
     32 H          -0.7865   -1.4673    0.7605 H       1  UNL1        0.0345
     33 H          -1.2565   -2.3351   -1.5099 H       1  UNL1        0.0235
     34 H          -1.8863   -3.5643   -0.2834 H       1  UNL1        0.0235
     35 H          -3.0491   -2.4607   -1.0680 H       1  UNL1        0.0235
     36 H          -2.2088   -3.0475    1.8899 H       1  UNL1        0.0235
     37 H          -2.6495   -1.4333    2.4794 H       1  UNL1        0.0235
     38 H          -3.6945   -2.3011    1.2742 H       1  UNL1        0.0235
     39 H           2.6892    0.9258    2.1957 H       1  UNL1        0.0626
     40 H           5.0671    0.2753    2.0593 H       1  UNL1        0.0620
@<TRIPOS>BOND
     1     1     2    1
     2     2     3   ar
     3     3     4   ar
     4     4     5   ar
     5     5     6    1
     6     6     7    2
     7     6     8    1
     8     8     9    1
     9     9    10   ar
    10    10    11   ar
    11    11    12    1
    12    11    13   ar
    13    13    14   ar
    14    14    15   ar
    15    15    16    1
    16    16    17    1
    17    16    18    1
    18     5    19   ar
    19    19    20   ar
    20    20     2   ar
    21    15     9   ar
    22     1    21    1
    23     1    22    1
    24     1    23    1
    25     3    24    1
    26     4    25    1
    27    10    26    1
    28    12    27    1
    29    12    28    1
    30    12    29    1
    31    13    30    1
    32    14    31    1
    33    16    32    1
    34    17    33    1
    35    17    34    1
    36    17    35    1
    37    18    36    1
    38    18    37    1
    39    18    38    1
    40    19    39    1
    41    20    40    1
@<TRIPOS>MOLECULE
90645468
 39 42 0 0 0
SMALL
GASTEIGER

@<TRIPOS>ATOM
      1 F          -0.7446   -0.9376   -2.0181 F       1  UNL1       -0.1659
      2 C          -1.9847   -1.3080   -1.4954 C.3     1  UNL1        0.4180
      3 F          -2.8979   -0.3004   -1.7610 F       1  UNL1       -0.1659
      4 F          -2.3360   -2.4596   -2.1651 F       1  UNL1       -0.1659
      5 C          -1.9272   -1.6078   -0.0477 C.ar    1  UNL1        0.0626
      6 C          -2.2948   -2.8768    0.3688 C.ar    1  UNL1       -0.0495
      7 C          -2.2569   -3.1768    1.7109 C.ar    1  UNL1       -0.0612
      8 C          -1.8599   -2.2307    2.6242 C.ar    1  UNL1       -0.0612
      9 C          -1.4926   -0.9532    2.1772 C.ar    1  UNL1       -0.0534
     10 C          -1.5250   -0.6385    0.8414 C.ar    1  UNL1       -0.0027
     11 C          -1.1476    0.6633    0.3419 C.ar    1  UNL1        0.0251
     12 C          -2.1104    1.6679    0.1653 C.ar    1  UNL1       -0.0398
     13 C          -1.7714    2.9121   -0.3148 C.ar    1  UNL1        0.0203
     14 C          -2.5255    4.0366   -0.5678 C.ar    1  UNL1        0.0569
     15 N          -1.6320    4.9557   -1.0323 N.ar    1  UNL1       -0.1812
     16 N          -0.4130    4.4248   -1.0603 N.ar    1  UNL1       -0.2768
     17 C          -0.4505    3.1553   -0.6229 C.ar    1  UNL1        0.0692
     18 C           0.4932    2.1646   -0.4477 C.ar    1  UNL1        0.0061
     19 C           0.1871    0.9122    0.0297 C.ar    1  UNL1        0.1302
     20 O           1.1241   -0.0948    0.2125 O.3     1  UNL1       -0.4910
     21 C           2.4808    0.1594   -0.1052 C.3     1  UNL1        0.0924
     22 C           3.2616   -1.1010    0.1904 C.3     1  UNL1       -0.0068
     23 C           4.7159   -1.1656   -0.0354 C.3     1  UNL1       -0.0468
     24 C           3.7625   -1.8687   -0.9912 C.3     1  UNL1       -0.0468
     25 H          -2.6146   -3.6588   -0.3042 H       1  UNL1        0.0623
     26 H          -2.5316   -4.1509    2.1048 H       1  UNL1        0.0618
     27 H          -1.8277   -2.4601    3.6842 H       1  UNL1        0.0618
     28 H          -1.1791   -0.1957    2.8655 H       1  UNL1        0.0624
     29 H          -3.1425    1.4774    0.4063 H       1  UNL1        0.0632
     30 H          -3.5998    4.1838   -0.4343 H       1  UNL1        0.0854
     31 H           0.4501    4.9093   -1.3721 H       1  UNL1        0.1889
     32 H           1.5521    2.3458   -0.6900 H       1  UNL1        0.0676
     33 H           2.6160    0.5010   -1.1495 H       1  UNL1        0.0699
     34 H           2.8753    0.9590    0.5580 H       1  UNL1        0.0699
     35 H           2.8686   -1.6518    1.0851 H       1  UNL1        0.0334
     36 H           5.2982   -1.8540    0.5958 H       1  UNL1        0.0269
     37 H           5.2975   -0.3364   -0.4475 H       1  UNL1        0.0269
     38 H           3.6331   -1.4304   -2.0014 H       1  UNL1        0.0269
     39 H           3.6489   -2.9703   -0.8979 H       1  UNL1        0.0269
@<TRIPOS>BOND
     1     1     2    1
     2     2     3    1
     3     2     4    1
     4     2     5    1
     5     5     6   ar
     6     6     7   ar
     7     7     8   ar
     8     8     9   ar
     9     9    10   ar
    10    10    11    1
    11    11    12   ar
    12    12    13   ar
    13    13    14   ar
    14    14    15   ar
    15    15    16   ar
    16    16    17   ar
    17    17    18   ar
    18    18    19   ar
    19    19    20    1
    20    20    21    1
    21    21    22    1
    22    22    23    1
    23    23    24    1
    24    10     5   ar
    25    19    11   ar
    26    24    22    1
    27    17    13   ar
    28     6    25    1
    29     7    26    1
    30     8    27    1
    31     9    28    1
    32    12    29    1
    33    14    30    1
    34    16    31    1
    35    18    32    1
    36    21    33    1
    37    21    34    1
    38    22    35    1
    39    23    36    1
    40    23    37    1
    41    24    38    1
    42    24    39    1
@<TRIPOS>MOLECULE
51345628
 49 54 0 0 0
SMALL
GASTEIGER

@<TRIPOS>ATOM
      1 O           2.5693   -1.9628    1.4429 O.2     1  UNL1       -0.2727
      2 C           2.0492   -0.9541    0.8967 C.2     1  UNL1        0.2484
      3 C           0.6009   -0.5674    0.8953 C.3     1  UNL1        0.1096
      4 C          -0.1981   -1.8518    0.9064 C.3     1  UNL1        0.0020
      5 C          -1.5723   -1.6019    0.3518 C.ar    1  UNL1       -0.0147
      6 C          -1.8284   -0.6210   -0.5761 C.ar    1  UNL1        0.0456
      7 N          -3.1642   -0.6862   -0.8409 N.ar    1  UNL1       -0.3560
      8 C          -3.7278   -1.6640   -0.1135 C.ar    1  UNL1        0.0470
      9 C          -5.0260   -2.1517    0.0036 C.ar    1  UNL1       -0.0378
     10 C          -5.3076   -3.1931    0.8551 C.ar    1  UNL1       -0.0598
     11 C          -4.3317   -3.7912    1.6187 C.ar    1  UNL1       -0.0611
     12 C          -3.0460   -3.3204    1.5134 C.ar    1  UNL1       -0.0523
     13 C          -2.7607   -2.2769    0.6610 C.ar    1  UNL1        0.0032
     14 C          -0.7643    0.2678   -1.1056 C.3     1  UNL1        0.0938
     15 C          -1.3049    1.6524   -1.1204 C.ar    1  UNL1       -0.0210
     16 C          -1.3383    2.3218    0.0859 C.ar    1  UNL1       -0.0537
     17 C          -1.8388    3.6105    0.0864 C.ar    1  UNL1       -0.0261
     18 C          -2.2851    4.1926   -1.0848 C.ar    1  UNL1        0.1234
     19 F          -2.7713    5.4585   -1.0552 F       1  UNL1       -0.2055
     20 C          -2.2352    3.4931   -2.2656 C.ar    1  UNL1       -0.0261
     21 C          -1.7421    2.2063   -2.3020 C.ar    1  UNL1       -0.0537
     22 N           0.4421    0.1591   -0.3397 N.am    1  UNL1       -0.2605
     23 C           1.7415    0.7244   -0.6017 C.2     1  UNL1        0.3171
     24 O           1.9807    1.6770   -1.3805 O.2     1  UNL1       -0.2516
     25 N           2.7391    0.0482    0.1530 N.am    1  UNL1       -0.1897
     26 C           4.1417    0.2753    0.2001 C.ar    1  UNL1        0.0806
     27 C           4.6716    1.1571    1.1185 C.ar    1  UNL1       -0.0370
     28 C           6.0254    1.3754    1.1629 C.ar    1  UNL1       -0.0598
     29 C           6.8755    0.7216    0.2960 C.ar    1  UNL1       -0.0589
     30 C           6.3839   -0.1706   -0.6398 C.ar    1  UNL1       -0.0246
     31 C           5.0195   -0.3642   -0.6547 C.ar    1  UNL1        0.1452
     32 F           4.4622   -1.2294   -1.5503 F       1  UNL1       -0.2035
     33 H           0.4241    0.0605    1.7770 H       1  UNL1        0.0601
     34 H          -0.2423   -2.1954    1.9605 H       1  UNL1        0.0337
     35 H           0.2925   -2.6519    0.3243 H       1  UNL1        0.0337
     36 H          -3.7048   -0.0849   -1.5022 H       1  UNL1        0.1657
     37 H          -5.7946   -1.6676   -0.6093 H       1  UNL1        0.0638
     38 H          -6.3258   -3.5296    0.9064 H       1  UNL1        0.0618
     39 H          -4.5685   -4.6248    2.2976 H       1  UNL1        0.0618
     40 H          -2.2354   -3.7480    2.0866 H       1  UNL1        0.0624
     41 H          -0.5367   -0.0321   -2.1696 H       1  UNL1        0.0616
     42 H          -0.9805    1.8385    0.9913 H       1  UNL1        0.0622
     43 H          -1.8588    4.1233    1.0401 H       1  UNL1        0.0646
     44 H          -2.5859    3.9417   -3.2045 H       1  UNL1        0.0646
     45 H          -1.7086    1.6616   -3.2493 H       1  UNL1        0.0622
     46 H           3.9797    1.6585    1.7893 H       1  UNL1        0.0637
     47 H           6.3955    2.0810    1.9058 H       1  UNL1        0.0618
     48 H           7.9319    0.9135    0.3550 H       1  UNL1        0.0618
     49 H           7.0586   -0.6788   -1.3158 H       1  UNL1        0.0647
@<TRIPOS>BOND
     1     1     2    2
     2     2     3    1
     3     3     4    1
     4     4     5    1
     5     5     6   ar
     6     6     7   ar
     7     7     8   ar
     8     8     9   ar
     9     9    10   ar
    10    10    11   ar
    11    11    12   ar
    12    12    13   ar
    13     6    14    1
    14    14    15    1
    15    15    16   ar
    16    16    17   ar
    17    17    18   ar
    18    18    19    1
    19    18    20   ar
    20    20    21   ar
    21    14    22    1
    22    22    23   am
    23    23    24    2
    24    23    25   am
    25    25    26    1
    26    26    27   ar
    27    27    28   ar
    28    28    29   ar
    29    29    30   ar
    30    30    31   ar
    31    31    32    1
    32    25     2   am
    33    31    26   ar
    34    22     3    1
    35    13     5   ar
    36    21    15   ar
    37    13     8   ar
    38     3    33    1
    39     4    34    1
    40     4    35    1
    41     7    36    1
    42     9    37    1
    43    10    38    1
    44    11    39    1
    45    12    40    1
    46    14    41    1
    47    16    42    1
    48    17    43    1
    49    20    44    1
    50    21    45    1
    51    27    46    1
    52    28    47    1
    53    29    48    1
    54    30    49    1
@<TRIPOS>MOLECULE
50162223
 57 58 0 0 0
SMALL
GASTEIGER

@<TRIPOS>ATOM
      1 C          -2.0260   -2.1099    0.6746 C.3     1  UNL1       -0.0624
      2 C          -2.6139   -1.1599    1.6678 C.3     1  UNL1       -0.0422
      3 C          -1.6010   -0.7264    2.6769 C.3     1  UNL1       -0.0624
      4 C          -3.3729   -0.0311    1.0296 C.3     1  UNL1       -0.0201
      5 C          -4.5100   -0.6194    0.2082 C.3     1  UNL1       -0.0481
      6 C          -4.7122    0.0815   -1.0984 C.3     1  UNL1       -0.0501
      7 C          -4.6598    1.5859   -0.9909 C.3     1  UNL1       -0.0422
      8 C          -5.9474    2.1538   -0.4722 C.3     1  UNL1       -0.0624
      9 C          -3.4504    2.0503   -0.2089 C.3     1  UNL1       -0.0315
     10 C          -2.5697    0.8365    0.1241 C.3     1  UNL1        0.0295
     11 N          -1.3665    1.3703    0.7004 N.am    1  UNL1       -0.2777
     12 C          -0.1260    1.1184    0.0580 C.2     1  UNL1        0.4058
     13 O          -0.1275    0.4270   -1.0074 O.2     1  UNL1       -0.2260
     14 O           1.0894    1.5700    0.5052 O.3     1  UNL1       -0.4115
     15 C           2.2767    1.2979   -0.1575 C.ar    1  UNL1        0.1335
     16 C           2.7234    2.1763   -1.1400 C.ar    1  UNL1       -0.0192
     17 C           3.8881    1.9592   -1.8275 C.ar    1  UNL1       -0.0580
     18 C           4.6379    0.8485   -1.5442 C.ar    1  UNL1       -0.0578
     19 C           4.2167   -0.0363   -0.5754 C.ar    1  UNL1       -0.0385
     20 C           5.0674   -1.2164   -0.3137 C.3     1  UNL1       -0.0126
     21 C           6.1034   -0.9653    0.7484 C.3     1  UNL1       -0.0560
     22 C           5.7883   -1.6382   -1.5850 C.3     1  UNL1       -0.0560
     23 C           4.2153   -2.3888    0.1440 C.3     1  UNL1       -0.0560
     24 C           3.0425    0.2081    0.0986 C.ar    1  UNL1       -0.0155
     25 H          -1.8227   -1.6476   -0.3176 H       1  UNL1        0.0232
     26 H          -2.6059   -3.0527    0.5796 H       1  UNL1        0.0232
     27 H          -1.0211   -2.4242    1.0576 H       1  UNL1        0.0232
     28 H          -3.3898   -1.7495    2.2427 H       1  UNL1        0.0299
     29 H          -0.5828   -0.7364    2.2357 H       1  UNL1        0.0232
     30 H          -1.5474   -1.4800    3.5176 H       1  UNL1        0.0232
     31 H          -1.8491    0.2302    3.1823 H       1  UNL1        0.0232
     32 H          -3.7868    0.6118    1.8384 H       1  UNL1        0.0321
     33 H          -4.2764   -1.6827   -0.0035 H       1  UNL1        0.0269
     34 H          -5.4543   -0.6360    0.8047 H       1  UNL1        0.0269
     35 H          -4.0004   -0.2549   -1.8787 H       1  UNL1        0.0268
     36 H          -5.7547   -0.1699   -1.4436 H       1  UNL1        0.0268
     37 H          -4.5178    1.9769   -2.0346 H       1  UNL1        0.0299
     38 H          -6.7840    1.5240   -0.8756 H       1  UNL1        0.0232
     39 H          -6.1363    3.1983   -0.8555 H       1  UNL1        0.0232
     40 H          -6.0160    2.2121    0.6161 H       1  UNL1        0.0232
     41 H          -2.8481    2.7991   -0.7371 H       1  UNL1        0.0286
     42 H          -3.7715    2.4871    0.7530 H       1  UNL1        0.0286
     43 H          -2.3464    0.2638   -0.7930 H       1  UNL1        0.0502
     44 H          -1.3582    1.9372    1.5718 H       1  UNL1        0.1523
     45 H           2.1556    3.0753   -1.3978 H       1  UNL1        0.0654
     46 H           4.2261    2.6402   -2.5835 H       1  UNL1        0.0619
     47 H           5.5570    0.6947   -2.0997 H       1  UNL1        0.0620
     48 H           5.6924   -0.4444    1.6364 H       1  UNL1        0.0238
     49 H           7.0007   -0.4531    0.3258 H       1  UNL1        0.0238
     50 H           6.4634   -1.9758    1.0937 H       1  UNL1        0.0238
     51 H           5.1111   -1.5659   -2.4696 H       1  UNL1        0.0238
     52 H           6.1808   -2.6740   -1.4928 H       1  UNL1        0.0238
     53 H           6.6640   -0.9925   -1.8030 H       1  UNL1        0.0238
     54 H           3.3094   -2.4664   -0.4921 H       1  UNL1        0.0238
     55 H           4.8415   -3.2984    0.0240 H       1  UNL1        0.0238
     56 H           3.9589   -2.2206    1.2242 H       1  UNL1        0.0238
     57 H           2.7433   -0.5177    0.8594 H       1  UNL1        0.0657
@<TRIPOS>BOND
     1     1     2    1
     2     2     3    1
     3     2     4    1
     4     4     5    1
     5     5     6    1
     6     6     7    1
     7     7     8    1
     8     7     9    1
     9     9    10    1
    10    10    11    1
    11    11    12   am
    12    12    13    2
    13    12    14    1
    14    14    15    1
    15    15    16   ar
    16    16    17   ar
    17    17    18   ar
    18    18    19   ar
    19    19    20    1
    20    20    21    1
    21    20    22    1
    22    20    23    1
    23    19    24   ar
    24    10     4    1
    25    24    15   ar
    26     1    25    1
    27     1    26    1
    28     1    27    1
    29     2    28    1
    30     3    29    1
    31     3    30    1
    32     3    31    1
    33     4    32    1
    34     5    33    1
    35     5    34    1
    36     6    35    1
    37     6    36    1
    38     7    37    1
    39     8    38    1
    40     8    39    1
    41     8    40    1
    42     9    41    1
    43     9    42    1
    44    10    43    1
    45    11    44    1
    46    16    45    1
    47    17    46    1
    48    18    47    1
    49    21    48    1
    50    21    49    1
    51    21    50    1
    52    22    51    1
    53    22    52    1
    54    22    53    1
    55    23    54    1
    56    23    55    1
    57    23    56    1
    58    24    57    1
@<TRIPOS>MOLECULE
51345600
 54 57 0 0 0
SMALL
GASTEIGER

@<TRIPOS>ATOM
      1 C          -4.6389   -2.1261    1.0407 C.3     1  UNL1       -0.0626
      2 C          -3.8331   -1.9799   -0.2129 C.3     1  UNL1       -0.0450
      3 C          -4.2448   -3.1665   -1.1076 C.3     1  UNL1       -0.0626
      4 C          -2.3725   -2.0499   -0.0405 C.3     1  UNL1       -0.0297
      5 C          -1.7282   -1.0434    0.8442 C.3     1  UNL1        0.0491
      6 N          -0.3103   -1.3449    0.8276 N.3     1  UNL1       -0.2973
      7 C           0.3773   -0.6379   -0.2324 C.3     1  UNL1        0.0893
      8 C           1.7533   -1.1785   -0.3331 C.2     1  UNL1        0.2307
      9 O           2.1466   -2.0847    0.4171 O.2     1  UNL1       -0.2741
     10 N           2.6366   -0.6475   -1.3074 N.am    1  UNL1       -0.3099
     11 C           3.9986   -1.0969   -1.4931 C.3     1  UNL1        0.0369
     12 C           4.9360   -0.5862   -0.4804 C.ar    1  UNL1       -0.0302
     13 C           5.2398   -1.2586    0.6713 C.ar    1  UNL1       -0.0544
     14 C           6.1394   -0.6730    1.5630 C.ar    1  UNL1       -0.0261
     15 C           6.7197    0.5538    1.3081 C.ar    1  UNL1        0.1234
     16 F           7.5972    1.0840    2.2182 F       1  UNL1       -0.2055
     17 C           6.3917    1.2009    0.1412 C.ar    1  UNL1       -0.0261
     18 C           5.5149    0.6546   -0.7517 C.ar    1  UNL1       -0.0544
     19 C           0.3715    0.8139    0.1920 C.3     1  UNL1       -0.0014
     20 C          -1.0372    1.2282    0.2616 C.ar    1  UNL1       -0.0156
     21 C          -2.0258    0.3479    0.5727 C.ar    1  UNL1        0.0374
     22 N          -3.1691    1.0918    0.5434 N.ar    1  UNL1       -0.3565
     23 C          -2.9169    2.3574    0.2338 C.ar    1  UNL1        0.0470
     24 C          -3.7083    3.5023    0.0740 C.ar    1  UNL1       -0.0378
     25 C          -3.1585    4.7213   -0.2605 C.ar    1  UNL1       -0.0598
     26 C          -1.7973    4.8350   -0.4464 C.ar    1  UNL1       -0.0611
     27 C          -1.0094    3.7147   -0.2916 C.ar    1  UNL1       -0.0523
     28 C          -1.5723    2.4923    0.0452 C.ar    1  UNL1        0.0032
     29 H          -4.8842   -3.1791    1.2905 H       1  UNL1        0.0232
     30 H          -4.1780   -1.6716    1.9330 H       1  UNL1        0.0232
     31 H          -5.6208   -1.6179    0.8747 H       1  UNL1        0.0232
     32 H          -4.0940   -1.0924   -0.8271 H       1  UNL1        0.0296
     33 H          -3.4959   -3.2935   -1.9067 H       1  UNL1        0.0232
     34 H          -4.2799   -4.0706   -0.4978 H       1  UNL1        0.0232
     35 H          -5.2428   -2.9456   -1.5819 H       1  UNL1        0.0232
     36 H          -1.8756   -2.0620   -1.0323 H       1  UNL1        0.0286
     37 H          -2.1242   -3.0574    0.4110 H       1  UNL1        0.0286
     38 H          -2.0446   -1.2377    1.9149 H       1  UNL1        0.0525
     39 H          -0.1126   -2.3530    0.6951 H       1  UNL1        0.1233
     40 H          -0.1858   -0.7020   -1.1836 H       1  UNL1        0.0560
     41 H           2.2468    0.1283   -1.9265 H       1  UNL1        0.1491
     42 H           4.0563   -2.2186   -1.4733 H       1  UNL1        0.0512
     43 H           4.3424   -0.8011   -2.5049 H       1  UNL1        0.0512
     44 H           4.8167   -2.2056    0.8996 H       1  UNL1        0.0622
     45 H           6.3877   -1.1930    2.4757 H       1  UNL1        0.0646
     46 H           6.8400    2.1650   -0.0721 H       1  UNL1        0.0646
     47 H           5.2607    1.1762   -1.6756 H       1  UNL1        0.0622
     48 H           0.8085    0.8373    1.2249 H       1  UNL1        0.0334
     49 H           0.9846    1.4468   -0.4797 H       1  UNL1        0.0334
     50 H          -4.1003    0.7097    0.7395 H       1  UNL1        0.1656
     51 H          -4.7756    3.3955    0.2237 H       1  UNL1        0.0638
     52 H          -3.7909    5.6019   -0.3807 H       1  UNL1        0.0618
     53 H          -1.3067    5.7706   -0.7111 H       1  UNL1        0.0618
     54 H           0.0684    3.7457   -0.4258 H       1  UNL1        0.0624
@<TRIPOS>BOND
     1     1     2    1
     2     2     3    1
     3     2     4    1
     4     4     5    1
     5     5     6    1
     6     6     7    1
     7     7     8    1
     8     8     9    2
     9     8    10   am
    10    10    11    1
    11    11    12    1
    12    12    13   ar
    13    13    14   ar
    14    14    15   ar
    15    15    16    1
    16    15    17   ar
    17    17    18   ar
    18     7    19    1
    19    19    20    1
    20    20    21   ar
    21    21    22   ar
    22    22    23   ar
    23    23    24   ar
    24    24    25   ar
    25    25    26   ar
    26    26    27   ar
    27    27    28   ar
    28    21     5    1
    29    28    23   ar
    30    18    12   ar
    31    28    20   ar
    32     1    29    1
    33     1    30    1
    34     1    31    1
    35     2    32    1
    36     3    33    1
    37     3    34    1
    38     3    35    1
    39     4    36    1
    40     4    37    1
    41     5    38    1
    42     6    39    1
    43     7    40    1
    44    10    41    1
    45    11    42    1
    46    11    43    1
    47    13    44    1
    48    14    45    1
    49    17    46    1
    50    18    47    1
    51    19    48    1
    52    19    49    1
    53    22    50    1
    54    24    51    1
    55    25    52    1
    56    26    53    1
    57    27    54    1
@<TRIPOS>MOLECULE
CHEMBL3970879
 50 52 0 0 0
SMALL
GASTEIGER

@<TRIPOS>ATOM
      1 N          -3.4181    1.1965   -3.4169 N.am    1  UNL1       -0.3275
      2 C          -2.6820    0.3954   -2.5183 C.2     1  UNL1        0.2356
      3 O          -3.0035   -0.8345   -2.4448 O.2     1  UNL1       -0.2736
      4 C          -1.5569    0.9209   -1.6659 C.3     1  UNL1        0.1278
      5 C          -2.0082    1.9284   -0.7069 C.ar    1  UNL1       -0.0182
      6 C          -3.3046    2.3999   -0.6984 C.ar    1  UNL1       -0.0563
      7 C          -3.6437    3.3558    0.2377 C.ar    1  UNL1       -0.0614
      8 C          -2.7469    3.8447    1.1457 C.ar    1  UNL1       -0.0617
      9 C          -1.4419    3.3771    1.1450 C.ar    1  UNL1       -0.0614
     10 C          -1.1033    2.4212    0.2087 C.ar    1  UNL1       -0.0563
     11 N          -0.8519   -0.2064   -1.0559 N.am    1  UNL1       -0.2776
     12 C           0.4435   -0.5809   -1.4931 C.3     1  UNL1        0.0412
     13 C           1.5965    0.0417   -0.8718 C.ar    1  UNL1       -0.0266
     14 C           2.1310    1.2338   -1.3762 C.ar    1  UNL1       -0.0568
     15 C           3.2364    1.8340   -0.7927 C.ar    1  UNL1       -0.0580
     16 C           3.8445    1.2703    0.3083 C.ar    1  UNL1       -0.0196
     17 C           3.3247    0.0957    0.8119 C.ar    1  UNL1        0.1303
     18 O           3.9116   -0.4852    1.9059 O.3     1  UNL1       -0.4057
     19 C           4.9613   -1.4389    1.8227 C.3     1  UNL1        0.5752
     20 F           6.0768   -0.9285    1.1909 F       1  UNL1       -0.1328
     21 F           5.3190   -1.8136    3.1014 F       1  UNL1       -0.1328
     22 F           4.4325   -2.5115    1.1030 F       1  UNL1       -0.1328
     23 C           2.2055   -0.5177    0.2253 C.ar    1  UNL1       -0.0149
     24 C          -1.5019   -0.9351   -0.0389 C.2     1  UNL1        0.2478
     25 O          -2.6679   -0.5685    0.3006 O.2     1  UNL1       -0.2699
     26 C          -0.9557   -2.0739    0.6585 C.ar    1  UNL1        0.0369
     27 C          -0.6481   -1.9330    2.0064 C.ar    1  UNL1       -0.0496
     28 C          -0.1295   -3.0051    2.7002 C.ar    1  UNL1       -0.0610
     29 C           0.1085   -4.2390    2.1243 C.ar    1  UNL1       -0.0617
     30 C          -0.2020   -4.3605    0.7882 C.ar    1  UNL1       -0.0610
     31 C          -0.7198   -3.2944    0.0897 C.ar    1  UNL1       -0.0496
     32 H          -4.3319    0.8807   -3.7768 H       1  UNL1        0.1450
     33 H          -3.0544    2.1177   -3.7304 H       1  UNL1        0.1450
     34 H          -0.8695    1.3833   -2.3989 H       1  UNL1        0.0648
     35 H          -4.0777    2.0432   -1.3984 H       1  UNL1        0.0621
     36 H          -4.6652    3.7363    0.2549 H       1  UNL1        0.0618
     37 H          -3.0015    4.5897    1.8791 H       1  UNL1        0.0618
     38 H          -0.7228    3.7482    1.8494 H       1  UNL1        0.0618
     39 H          -0.0699    2.0846    0.2478 H       1  UNL1        0.0621
     40 H           0.4876   -0.3541   -2.5992 H       1  UNL1        0.0514
     41 H           0.6201   -1.6993   -1.4307 H       1  UNL1        0.0514
     42 H           1.6379    1.6413   -2.2249 H       1  UNL1        0.0621
     43 H           3.6267    2.7626   -1.2114 H       1  UNL1        0.0619
     44 H           4.7043    1.7091    0.7870 H       1  UNL1        0.0654
     45 H           1.8528   -1.4481    0.6733 H       1  UNL1        0.0657
     46 H          -0.7984   -1.0172    2.5335 H       1  UNL1        0.0625
     47 H           0.1274   -2.9366    3.7644 H       1  UNL1        0.0618
     48 H           0.5137   -5.0848    2.6591 H       1  UNL1        0.0618
     49 H          -0.0347   -5.3115    0.2817 H       1  UNL1        0.0618
     50 H          -0.9505   -3.4338   -0.9540 H       1  UNL1        0.0625
@<TRIPOS>BOND
     1     1     2   am
     2     2     3    2
     3     2     4    1
     4     4     5    1
     5     5     6   ar
     6     6     7   ar
     7     7     8   ar
     8     8     9   ar
     9     9    10   ar
    10     4    11    1
    11    11    12    1
    12    12    13    1
    13    13    14   ar
    14    14    15   ar
    15    15    16   ar
    16    16    17   ar
    17    17    18    1
    18    18    19    1
    19    19    20    1
    20    19    21    1
    21    19    22    1
    22    17    23   ar
    23    11    24   am
    24    24    25    2
    25    24    26    1
    26    26    27   ar
    27    27    28   ar
    28    28    29   ar
    29    29    30   ar
    30    30    31   ar
    31    10     5   ar
    32    23    13   ar
    33    31    26   ar
    34     1    32    1
    35     1    33    1
    36     4    34    1
    37     6    35    1
    38     7    36    1
    39     8    37    1
    40     9    38    1
    41    10    39    1
    42    12    40    1
    43    12    41    1
    44    14    42    1
    45    15    43    1
    46    16    44    1
    47    23    45    1
    48    27    46    1
    49    28    47    1
    50    29    48    1
    51    30    49    1
    52    31    50    1
@<TRIPOS>MOLECULE
171345975
 38 40 0 0 0
SMALL
GASTEIGER

@<TRIPOS>ATOM
      1 C           7.5582   -0.3263   -1.0072 C.3     1  UNL1       -0.0438
      2 C           6.9083   -0.6376    0.3001 C.3     1  UNL1        0.0600
      3 N           5.7054    0.1489    0.5243 N.ar    1  UNL1       -0.1631
      4 N           5.5818    1.3258    1.1046 N.ar    1  UNL1       -0.0458
      5 N           4.3213    1.7089    1.1152 N.ar    1  UNL1       -0.1071
      6 C           3.5967    0.7390    0.5162 C.ar    1  UNL1        0.2163
      7 C           2.1700    0.7521    0.3145 C.ar    1  UNL1        0.1230
      8 S           1.0797   -0.6367    0.8091 S.2     1  UNL1       -0.0601
      9 C          -0.4728    0.1624    0.2255 C.ar    1  UNL1        0.1129
     10 C          -1.7144   -0.5434    0.3826 C.ar    1  UNL1        0.0090
     11 C          -1.8424   -1.7868    0.9417 C.ar    1  UNL1       -0.0519
     12 C          -3.0501   -2.4240    1.0716 C.ar    1  UNL1       -0.0594
     13 C          -4.1715   -1.7457    0.6033 C.ar    1  UNL1       -0.0406
     14 C          -4.1016   -0.5056    0.0378 C.ar    1  UNL1        0.0298
     15 N          -5.2652    0.1676   -0.4340 N.pl3   1  UNL1       -0.3360
     16 C          -5.2171    1.4653   -1.0292 C.3     1  UNL1        0.0004
     17 C          -6.5506   -0.4945   -0.3032 C.3     1  UNL1        0.0004
     18 C          -2.8504    0.0768   -0.0608 C.ar    1  UNL1       -0.0310
     19 N          -0.0095    1.2308   -0.2065 N.ar    1  UNL1       -0.2047
     20 C           1.2338    1.5935   -0.2042 C.ar    1  UNL1        0.2313
     21 O           1.6414    2.8514   -0.7318 O.3     1  UNL1       -0.4915
     22 N           4.4919   -0.2070    0.1661 N.ar    1  UNL1       -0.1297
     23 H           7.0660   -0.9619   -1.7958 H       1  UNL1        0.0248
     24 H           7.5227    0.7519   -1.2686 H       1  UNL1        0.0248
     25 H           8.6201   -0.6590   -0.9672 H       1  UNL1        0.0248
     26 H           6.6065   -1.7050    0.3253 H       1  UNL1        0.0524
     27 H           7.6238   -0.5215    1.1644 H       1  UNL1        0.0524
     28 H          -0.9248   -2.2695    1.2913 H       1  UNL1        0.0624
     29 H          -3.0969   -3.3936    1.5149 H       1  UNL1        0.0618
     30 H          -5.1184   -2.2447    0.7048 H       1  UNL1        0.0636
     31 H          -4.5248    2.1652   -0.4965 H       1  UNL1        0.0428
     32 H          -4.9666    1.4197   -2.1185 H       1  UNL1        0.0428
     33 H          -6.2158    1.9455   -0.9772 H       1  UNL1        0.0428
     34 H          -7.3871    0.1313   -0.6114 H       1  UNL1        0.0428
     35 H          -6.5024   -1.4058   -0.9654 H       1  UNL1        0.0428
     36 H          -6.6515   -0.8995    0.7272 H       1  UNL1        0.0428
     37 H          -2.8035    1.0706   -0.5152 H       1  UNL1        0.0643
     38 H           1.7098    3.6611   -0.1483 H       1  UNL1        0.2938
@<TRIPOS>BOND
     1     1     2    1
     2     2     3    1
     3     3     4   ar
     4     4     5   ar
     5     5     6   ar
     6     6     7    1
     7     7     8   ar
     8     8     9   ar
     9     9    10    1
    10    10    11   ar
    11    11    12   ar
    12    12    13   ar
    13    13    14   ar
    14    14    15    1
    15    15    16    1
    16    15    17    1
    17    14    18   ar
    18     9    19   ar
    19    19    20   ar
    20    20    21    1
    21     6    22   ar
    22    22     3   ar
    23    20     7   ar
    24    18    10   ar
    25     1    23    1
    26     1    24    1
    27     1    25    1
    28     2    26    1
    29     2    27    1
    30    11    28    1
    31    12    29    1
    32    13    30    1
    33    16    31    1
    34    16    32    1
    35    16    33    1
    36    17    34    1
    37    17    35    1
    38    17    36    1
    39    18    37    1
    40    21    38    1
@<TRIPOS>MOLECULE
68288099
 55 58 0 0 0
SMALL
GASTEIGER

@<TRIPOS>ATOM
      1 C           0.5410   -1.6261   -1.6748 C.3     1  UNL1       -0.0422
      2 C           0.1345   -1.9122   -0.2508 C.3     1  UNL1        0.0487
      3 C          -0.6236   -3.1766   -0.2278 C.ar    1  UNL1       -0.0271
      4 C          -1.4505   -3.4789    0.8481 C.ar    1  UNL1       -0.0541
      5 C          -2.1714   -4.6526    0.9198 C.ar    1  UNL1       -0.0261
      6 C          -2.0664   -5.5611   -0.1173 C.ar    1  UNL1        0.1234
      7 F          -2.7747   -6.7350   -0.0687 F       1  UNL1       -0.2055
      8 C          -1.2612   -5.3006   -1.1959 C.ar    1  UNL1       -0.0261
      9 C          -0.5533   -4.1076   -1.2277 C.ar    1  UNL1       -0.0541
     10 N          -0.6064   -0.8168    0.3466 N.am    1  UNL1       -0.2901
     11 C          -1.9036   -0.4642   -0.1597 C.3     1  UNL1        0.0403
     12 C          -1.9216    0.5247   -1.2557 C.ar    1  UNL1       -0.0293
     13 C          -1.9877    0.1042   -2.5701 C.ar    1  UNL1       -0.0570
     14 C          -1.9961    1.0054   -3.6370 C.ar    1  UNL1       -0.0607
     15 C          -1.9376    2.3421   -3.3727 C.ar    1  UNL1       -0.0478
     16 C          -1.8724    2.7774   -2.0744 C.ar    1  UNL1        0.0591
     17 C          -1.8116    4.2271   -1.8540 C.2     1  UNL1        0.3368
     18 O          -1.7504    4.7124   -0.6749 O.2     1  UNL1       -0.2451
     19 O          -1.8179    5.1133   -2.8943 O.3     1  UNL1       -0.4771
     20 C          -1.8653    1.8807   -1.0489 C.ar    1  UNL1       -0.0431
     21 C          -0.0760   -0.0937    1.4507 C.2     1  UNL1        0.2200
     22 O          -0.7793    0.8143    1.9575 O.2     1  UNL1       -0.2753
     23 C           1.2688   -0.3502    2.0448 C.3     1  UNL1        0.0437
     24 C           2.4063    0.0173    1.1372 C.3     1  UNL1       -0.0160
     25 C           2.8612    1.3937    1.5632 C.ar    1  UNL1       -0.0434
     26 C           3.6699    2.3287    0.9630 C.ar    1  UNL1       -0.0583
     27 C           3.9437    3.5428    1.5529 C.ar    1  UNL1       -0.0615
     28 C           3.3746    3.7975    2.7818 C.ar    1  UNL1       -0.0615
     29 C           2.5668    2.8697    3.3873 C.ar    1  UNL1       -0.0583
     30 C           2.3046    1.6700    2.7901 C.ar    1  UNL1       -0.0434
     31 C           1.4795    0.5209    3.2387 C.3     1  UNL1       -0.0160
     32 H           1.5759   -2.0617   -1.8169 H       1  UNL1        0.0251
     33 H           0.7079   -0.5336   -1.7716 H       1  UNL1        0.0251
     34 H          -0.0688   -2.0584   -2.4507 H       1  UNL1        0.0251
     35 H           1.0792   -2.0094    0.3745 H       1  UNL1        0.0548
     36 H          -1.5797   -2.8051    1.7011 H       1  UNL1        0.0622
     37 H          -2.8118   -4.8696    1.7663 H       1  UNL1        0.0646
     38 H          -1.1966   -6.0336   -1.9993 H       1  UNL1        0.0646
     39 H           0.0660   -3.9728   -2.0981 H       1  UNL1        0.0622
     40 H          -2.3874   -1.4267   -0.4643 H       1  UNL1        0.0514
     41 H          -2.4730   -0.0039    0.6975 H       1  UNL1        0.0514
     42 H          -2.0511   -0.9305   -2.8748 H       1  UNL1        0.0621
     43 H          -2.0480    0.6704   -4.6733 H       1  UNL1        0.0618
     44 H          -1.9427    3.0594   -4.2046 H       1  UNL1        0.0626
     45 H          -1.9769    6.0857   -2.7805 H       1  UNL1        0.2954
     46 H          -1.8175    2.2896   -0.0366 H       1  UNL1        0.0629
     47 H           1.3436   -1.4430    2.3122 H       1  UNL1        0.0401
     48 H           2.1022    0.0879    0.0582 H       1  UNL1        0.0321
     49 H           3.2923   -0.6353    1.2586 H       1  UNL1        0.0321
     50 H           4.1059    2.1069   -0.0021 H       1  UNL1        0.0620
     51 H           4.5794    4.2644    1.0704 H       1  UNL1        0.0618
     52 H           3.5854    4.7650    3.2635 H       1  UNL1        0.0618
     53 H           2.1559    3.1576    4.3667 H       1  UNL1        0.0620
     54 H           0.4847    0.9509    3.5413 H       1  UNL1        0.0321
     55 H           1.9510   -0.0207    4.0858 H       1  UNL1        0.0321
@<TRIPOS>BOND
     1     1     2    1
     2     2     3    1
     3     3     4   ar
     4     4     5   ar
     5     5     6   ar
     6     6     7    1
     7     6     8   ar
     8     8     9   ar
     9     2    10    1
    10    10    11    1
    11    11    12    1
    12    12    13   ar
    13    13    14   ar
    14    14    15   ar
    15    15    16   ar
    16    16    17    1
    17    17    18    2
    18    17    19    1
    19    16    20   ar
    20    10    21   am
    21    21    22    2
    22    21    23    1
    23    23    24    1
    24    24    25    1
    25    25    26   ar
    26    26    27   ar
    27    27    28   ar
    28    28    29   ar
    29    29    30   ar
    30    30    31    1
    31     9     3   ar
    32    20    12   ar
    33    31    23    1
    34    30    25   ar
    35     1    32    1
    36     1    33    1
    37     1    34    1
    38     2    35    1
    39     4    36    1
    40     5    37    1
    41     8    38    1
    42     9    39    1
    43    11    40    1
    44    11    41    1
    45    13    42    1
    46    14    43    1
    47    15    44    1
    48    19    45    1
    49    20    46    1
    50    23    47    1
    51    24    48    1
    52    24    49    1
    53    26    50    1
    54    27    51    1
    55    28    52    1
    56    29    53    1
    57    31    54    1
    58    31    55    1
@<TRIPOS>MOLECULE
CHEMBL3899728
 49 51 0 0 0
SMALL
GASTEIGER

@<TRIPOS>ATOM
      1 N          -0.7466   -0.9651   -3.4499 N.am    1  UNL1       -0.3275
      2 C          -0.3617    0.1248   -2.6372 C.2     1  UNL1        0.2356
      3 O           0.2876    1.0560   -3.2333 O.2     1  UNL1       -0.2736
      4 C          -0.6416    0.2598   -1.2021 C.3     1  UNL1        0.1278
      5 C          -1.0376   -0.9891   -0.5278 C.ar    1  UNL1       -0.0182
      6 C          -2.3123   -1.5398   -0.8198 C.ar    1  UNL1       -0.0563
      7 C          -2.7868   -2.6794   -0.2679 C.ar    1  UNL1       -0.0614
      8 C          -2.0396   -3.3835    0.6304 C.ar    1  UNL1       -0.0617
      9 C          -0.7910   -2.8875    0.9507 C.ar    1  UNL1       -0.0614
     10 C          -0.3160   -1.7058    0.3693 C.ar    1  UNL1       -0.0563
     11 N           0.2402    1.1334   -0.4918 N.am    1  UNL1       -0.2776
     12 C           1.6627    1.1236   -0.6203 C.3     1  UNL1        0.0411
     13 C           2.5589    0.4798    0.2872 C.ar    1  UNL1       -0.0295
     14 C           2.9912    1.0060    1.4984 C.ar    1  UNL1       -0.0570
     15 C           3.9039    0.3679    2.3217 C.ar    1  UNL1       -0.0609
     16 C           4.4300   -0.8442    1.9607 C.ar    1  UNL1       -0.0501
     17 C           4.0392   -1.4086    0.7794 C.ar    1  UNL1        0.0551
     18 C           4.6019   -2.7430    0.4231 C.3     1  UNL1        0.4174
     19 F           3.7791   -3.3695   -0.4949 F       1  UNL1       -0.1659
     20 F           4.6344   -3.4786    1.6015 F       1  UNL1       -0.1659
     21 F           5.8901   -2.6119   -0.0054 F       1  UNL1       -0.1659
     22 C           3.1338   -0.7634   -0.0273 C.ar    1  UNL1       -0.0454
     23 C          -0.4036    2.1935    0.2623 C.2     1  UNL1        0.2478
     24 O           0.3615    2.9836    0.8974 O.2     1  UNL1       -0.2699
     25 C          -1.8077    2.4327    0.3565 C.ar    1  UNL1        0.0369
     26 C          -2.7266    1.5584    0.9424 C.ar    1  UNL1       -0.0496
     27 C          -4.0849    1.8689    1.0098 C.ar    1  UNL1       -0.0610
     28 C          -4.5483    3.0457    0.5008 C.ar    1  UNL1       -0.0617
     29 C          -3.6800    3.9267   -0.0786 C.ar    1  UNL1       -0.0610
     30 C          -2.3483    3.6152   -0.1421 C.ar    1  UNL1       -0.0496
     31 H          -0.2255   -1.1601   -4.3231 H       1  UNL1        0.1450
     32 H          -1.5247   -1.6041   -3.2351 H       1  UNL1        0.1450
     33 H          -1.7020    0.8142   -1.1518 H       1  UNL1        0.0648
     34 H          -2.9342   -0.9847   -1.5155 H       1  UNL1        0.0621
     35 H          -3.7630   -3.0630   -0.5265 H       1  UNL1        0.0618
     36 H          -2.3774   -4.2962    1.0907 H       1  UNL1        0.0618
     37 H          -0.1846   -3.4275    1.6583 H       1  UNL1        0.0618
     38 H           0.6385   -1.4040    0.7000 H       1  UNL1        0.0621
     39 H           1.8463    0.6390   -1.6484 H       1  UNL1        0.0514
     40 H           2.0051    2.2015   -0.8696 H       1  UNL1        0.0514
     41 H           2.6369    1.9387    1.8405 H       1  UNL1        0.0621
     42 H           4.1993    0.8272    3.2521 H       1  UNL1        0.0618
     43 H           5.1449   -1.3558    2.5961 H       1  UNL1        0.0623
     44 H           2.8637   -1.2482   -0.9472 H       1  UNL1        0.0626
     45 H          -2.3972    0.6422    1.3532 H       1  UNL1        0.0625
     46 H          -4.7740    1.1791    1.4650 H       1  UNL1        0.0618
     47 H          -5.6086    3.3170    0.5433 H       1  UNL1        0.0618
     48 H          -4.0707    4.8614   -0.4760 H       1  UNL1        0.0618
     49 H          -1.6547    4.3167   -0.5990 H       1  UNL1        0.0625
@<TRIPOS>BOND
     1     1     2   am
     2     2     3    2
     3     2     4    1
     4     4     5    1
     5     5     6   ar
     6     6     7   ar
     7     7     8   ar
     8     8     9   ar
     9     9    10   ar
    10     4    11    1
    11    11    12    1
    12    12    13    1
    13    13    14   ar
    14    14    15   ar
    15    15    16   ar
    16    16    17   ar
    17    17    18    1
    18    18    19    1
    19    18    20    1
    20    18    21    1
    21    17    22   ar
    22    11    23   am
    23    23    24    2
    24    23    25    1
    25    25    26   ar
    26    26    27   ar
    27    27    28   ar
    28    28    29   ar
    29    29    30   ar
    30    10     5   ar
    31    22    13   ar
    32    30    25   ar
    33     1    31    1
    34     1    32    1
    35     4    33    1
    36     6    34    1
    37     7    35    1
    38     8    36    1
    39     9    37    1
    40    10    38    1
    41    12    39    1
    42    12    40    1
    43    14    41    1
    44    15    42    1
    45    16    43    1
    46    22    44    1
    47    26    45    1
    48    27    46    1
    49    28    47    1
    50    29    48    1
    51    30    49    1
@<TRIPOS>MOLECULE
51345604
 51 54 0 0 0
SMALL
GASTEIGER

@<TRIPOS>ATOM
      1 O          -4.3116    3.9912    1.3948 O.2     1  UNL1       -0.2510
      2 C          -3.4367    4.4061    0.5941 C.2     1  UNL1        0.3048
      3 O          -3.2583    5.7775    0.4838 O.3     1  UNL1       -0.4806
      4 C          -2.6047    3.5179   -0.2202 C.3     1  UNL1        0.0465
      5 C          -2.9038    2.0643    0.0002 C.3     1  UNL1       -0.0220
      6 C          -2.0162    1.2110   -0.8658 C.3     1  UNL1        0.0494
      7 N          -0.6208    1.3772   -0.6248 N.3     1  UNL1       -0.2973
      8 C          -0.0832    0.6271    0.4632 C.3     1  UNL1        0.0893
      9 C           1.3686    0.9749    0.5988 C.2     1  UNL1        0.2307
     10 O           1.8736    1.8096   -0.1950 O.2     1  UNL1       -0.2741
     11 N           2.1986    0.4106    1.5754 N.am    1  UNL1       -0.3099
     12 C           3.5776    0.7061    1.7416 C.3     1  UNL1        0.0369
     13 C           4.5046    0.0882    0.7986 C.ar    1  UNL1       -0.0302
     14 C           5.0471   -1.1807    0.9709 C.ar    1  UNL1       -0.0544
     15 C           5.9317   -1.7339    0.0668 C.ar    1  UNL1       -0.0261
     16 C           6.2991   -1.0002   -1.0618 C.ar    1  UNL1        0.1234
     17 F           7.1623   -1.4998   -1.9759 F       1  UNL1       -0.2055
     18 C           5.7803    0.2417   -1.2486 C.ar    1  UNL1       -0.0261
     19 C           4.8876    0.7835   -0.3230 C.ar    1  UNL1       -0.0544
     20 C          -0.1022   -0.8528    0.0655 C.3     1  UNL1       -0.0014
     21 C          -1.5072   -1.1829   -0.3238 C.ar    1  UNL1       -0.0156
     22 C          -2.3807   -0.2177   -0.7530 C.ar    1  UNL1        0.0375
     23 N          -3.5398   -0.8475   -1.0170 N.ar    1  UNL1       -0.3565
     24 C          -3.4445   -2.1625   -0.7767 C.ar    1  UNL1        0.0470
     25 C          -4.3319   -3.2141   -0.8873 C.ar    1  UNL1       -0.0378
     26 C          -3.9309   -4.4933   -0.5562 C.ar    1  UNL1       -0.0598
     27 C          -2.6559   -4.7562   -0.1131 C.ar    1  UNL1       -0.0611
     28 C          -1.7908   -3.6897   -0.0118 C.ar    1  UNL1       -0.0523
     29 C          -2.1524   -2.4018   -0.3319 C.ar    1  UNL1        0.0032
     30 H          -3.8542    6.4495    0.9506 H       1  UNL1        0.2951
     31 H          -1.5404    3.6858    0.0607 H       1  UNL1        0.0378
     32 H          -2.7871    3.7793   -1.2889 H       1  UNL1        0.0378
     33 H          -2.8179    1.7946    1.0535 H       1  UNL1        0.0289
     34 H          -3.9524    1.8927   -0.3572 H       1  UNL1        0.0289
     35 H          -2.1906    1.4925   -1.9465 H       1  UNL1        0.0525
     36 H          -0.2568    2.3247   -0.7496 H       1  UNL1        0.1233
     37 H          -0.6166    0.7337    1.4166 H       1  UNL1        0.0560
     38 H           1.7293   -0.2896    2.2264 H       1  UNL1        0.1491
     39 H           3.9029    0.3582    2.7701 H       1  UNL1        0.0512
     40 H           3.8036    1.7960    1.7513 H       1  UNL1        0.0512
     41 H           4.7633   -1.7502    1.8446 H       1  UNL1        0.0622
     42 H           6.3691   -2.7114    0.1701 H       1  UNL1        0.0646
     43 H           6.0718    0.7964   -2.1227 H       1  UNL1        0.0646
     44 H           4.5465    1.7804   -0.5727 H       1  UNL1        0.0622
     45 H           0.2394   -1.4883    0.8985 H       1  UNL1        0.0334
     46 H           0.5423   -0.9428   -0.8212 H       1  UNL1        0.0334
     47 H          -4.4452   -0.4216   -1.3699 H       1  UNL1        0.1656
     48 H          -5.3525   -3.0602   -1.2328 H       1  UNL1        0.0638
     49 H          -4.6069   -5.3275   -0.6352 H       1  UNL1        0.0618
     50 H          -2.3217   -5.7451    0.1505 H       1  UNL1        0.0618
     51 H          -0.7853   -3.9009    0.3383 H       1  UNL1        0.0624
@<TRIPOS>BOND
     1     1     2    2
     2     2     3    1
     3     2     4    1
     4     4     5    1
     5     5     6    1
     6     6     7    1
     7     7     8    1
     8     8     9    1
     9     9    10    2
    10     9    11   am
    11    11    12    1
    12    12    13    1
    13    13    14   ar
    14    14    15   ar
    15    15    16   ar
    16    16    17    1
    17    16    18   ar
    18    18    19   ar
    19     8    20    1
    20    20    21    1
    21    21    22   ar
    22    22    23   ar
    23    23    24   ar
    24    24    25   ar
    25    25    26   ar
    26    26    27   ar
    27    27    28   ar
    28    28    29   ar
    29    22     6    1
    30    29    24   ar
    31    19    13   ar
    32    29    21   ar
    33     3    30    1
    34     4    31    1
    35     4    32    1
    36     5    33    1
    37     5    34    1
    38     6    35    1
    39     7    36    1
    40     8    37    1
    41    11    38    1
    42    12    39    1
    43    12    40    1
    44    14    41    1
    45    15    42    1
    46    18    43    1
    47    19    44    1
    48    20    45    1
    49    20    46    1
    50    23    47    1
    51    25    48    1
    52    26    49    1
    53    27    50    1
    54    28    51    1
@<TRIPOS>MOLECULE
51345623
 50 54 0 0 0
SMALL
GASTEIGER

@<TRIPOS>ATOM
      1 N           5.2141   -2.0259   -1.5433 N.3     1  UNL1       -0.3299
      2 C           4.3333   -1.7196   -0.4072 C.3     1  UNL1       -0.0055
      3 C           4.9099   -0.5136    0.3069 C.3     1  UNL1       -0.0242
      4 C           4.0550   -0.1489    1.4797 C.3     1  UNL1        0.0250
      5 N           2.7085    0.1846    1.1647 N.am    1  UNL1       -0.2243
      6 C           2.1452    1.4675    0.8457 C.2     1  UNL1        0.2439
      7 O           2.7447    2.5289    1.0771 O.2     1  UNL1       -0.2731
      8 C           0.8153    1.2136    0.2386 C.3     1  UNL1        0.1093
      9 C          -0.1641    2.3096    0.5597 C.3     1  UNL1        0.0020
     10 C          -1.5480    1.8336    0.4339 C.ar    1  UNL1       -0.0147
     11 C          -1.8930    0.5227    0.5964 C.ar    1  UNL1        0.0456
     12 N          -3.2233    0.4450    0.4137 N.ar    1  UNL1       -0.3560
     13 C          -3.7362    1.6465    0.1431 C.ar    1  UNL1        0.0470
     14 C          -5.0225    2.0968   -0.1190 C.ar    1  UNL1       -0.0378
     15 C          -5.2331    3.4295   -0.3666 C.ar    1  UNL1       -0.0598
     16 C          -4.2071    4.3567   -0.3667 C.ar    1  UNL1       -0.0611
     17 C          -2.9311    3.9010   -0.1053 C.ar    1  UNL1       -0.0523
     18 C          -2.7058    2.5579    0.1461 C.ar    1  UNL1        0.0032
     19 C          -0.9149   -0.5403    0.9129 C.3     1  UNL1        0.0938
     20 C          -1.1521   -1.7299    0.0295 C.ar    1  UNL1       -0.0210
     21 C          -1.8111   -2.8480    0.4915 C.ar    1  UNL1       -0.0537
     22 C          -2.0089   -3.9251   -0.3593 C.ar    1  UNL1       -0.0261
     23 C          -1.5703   -3.9309   -1.6678 C.ar    1  UNL1        0.1234
     24 F          -1.7734   -4.9995   -2.4915 F       1  UNL1       -0.2055
     25 C          -0.9122   -2.8114   -2.1252 C.ar    1  UNL1       -0.0261
     26 C          -0.7102   -1.7357   -1.2887 C.ar    1  UNL1       -0.0537
     27 N           0.4508   -0.0674    0.7689 N.am    1  UNL1       -0.2608
     28 C           1.6463   -0.7602    1.1138 C.2     1  UNL1        0.3126
     29 O           1.7469   -2.0146    1.3386 O.2     1  UNL1       -0.2519
     30 H           5.2175   -1.2482   -2.2292 H       1  UNL1        0.1182
     31 H           6.2016   -2.1084   -1.1887 H       1  UNL1        0.1182
     32 H           4.3368   -2.5846    0.2694 H       1  UNL1        0.0422
     33 H           3.3450   -1.4747   -0.8330 H       1  UNL1        0.0422
     34 H           5.0995    0.3224   -0.3832 H       1  UNL1        0.0293
     35 H           5.8999   -0.8291    0.6998 H       1  UNL1        0.0293
     36 H           4.5001    0.7183    2.0253 H       1  UNL1        0.0470
     37 H           4.0597   -1.0004    2.1901 H       1  UNL1        0.0470
     38 H           0.9951    1.1656   -0.8741 H       1  UNL1        0.0601
     39 H          -0.0073    3.1098   -0.2064 H       1  UNL1        0.0337
     40 H           0.0464    2.8033    1.5414 H       1  UNL1        0.0337
     41 H          -3.7911   -0.4444    0.4750 H       1  UNL1        0.1657
     42 H          -5.8279    1.3701   -0.1191 H       1  UNL1        0.0638
     43 H          -6.2480    3.7468   -0.5671 H       1  UNL1        0.0618
     44 H          -4.4276    5.3813   -0.5657 H       1  UNL1        0.0618
     45 H          -2.1000    4.5825   -0.0941 H       1  UNL1        0.0624
     46 H          -1.1009   -0.8679    1.9565 H       1  UNL1        0.0616
     47 H          -2.1787   -2.8903    1.5250 H       1  UNL1        0.0622
     48 H          -2.5214   -4.8078   -0.0175 H       1  UNL1        0.0646
     49 H          -0.5572   -2.8026   -3.1660 H       1  UNL1        0.0646
     50 H          -0.1934   -0.8645   -1.6584 H       1  UNL1        0.0622
@<TRIPOS>BOND
     1     1     2    1
     2     2     3    1
     3     3     4    1
     4     4     5    1
     5     5     6   am
     6     6     7    2
     7     6     8    1
     8     8     9    1
     9     9    10    1
    10    10    11   ar
    11    11    12   ar
    12    12    13   ar
    13    13    14   ar
    14    14    15   ar
    15    15    16   ar
    16    16    17   ar
    17    17    18   ar
    18    11    19    1
    19    19    20    1
    20    20    21   ar
    21    21    22   ar
    22    22    23   ar
    23    23    24    1
    24    23    25   ar
    25    25    26   ar
    26    19    27    1
    27    27    28   am
    28    28    29    2
    29    28     5   am
    30    27     8    1
    31    18    10   ar
    32    26    20   ar
    33    18    13   ar
    34     1    30    1
    35     1    31    1
    36     2    32    1
    37     2    33    1
    38     3    34    1
    39     3    35    1
    40     4    36    1
    41     4    37    1
    42     8    38    1
    43     9    39    1
    44     9    40    1
    45    12    41    1
    46    14    42    1
    47    15    43    1
    48    16    44    1
    49    17    45    1
    50    19    46    1
    51    21    47    1
    52    22    48    1
    53    25    49    1
    54    26    50    1
@<TRIPOS>MOLECULE
51345629
 49 54 0 0 0
SMALL
GASTEIGER

@<TRIPOS>ATOM
      1 O           2.6007   -1.7346    1.9439 O.2     1  UNL1       -0.2727
      2 C           2.0248   -1.0110    1.0794 C.2     1  UNL1        0.2484
      3 C           0.6492   -1.0879    0.6003 C.3     1  UNL1        0.1096
      4 C          -0.3302   -1.7411    1.5438 C.3     1  UNL1        0.0020
      5 C          -1.6490   -1.5664    0.8964 C.ar    1  UNL1       -0.0147
      6 C          -1.9653   -0.3255    0.4133 C.ar    1  UNL1        0.0456
      7 N          -3.1951   -0.4352   -0.1254 N.ar    1  UNL1       -0.3560
      8 C          -3.6842   -1.6820   -0.0125 C.ar    1  UNL1        0.0470
      9 C          -4.8599   -2.2892   -0.3907 C.ar    1  UNL1       -0.0378
     10 C          -5.1159   -3.6213   -0.1468 C.ar    1  UNL1       -0.0598
     11 C          -4.1272   -4.3371    0.5047 C.ar    1  UNL1       -0.0611
     12 C          -2.9444   -3.7567    0.8934 C.ar    1  UNL1       -0.0523
     13 C          -2.7040   -2.4043    0.6368 C.ar    1  UNL1        0.0032
     14 C          -0.9901    0.7783    0.5731 C.3     1  UNL1        0.0938
     15 C          -1.3451    1.9512   -0.2629 C.ar    1  UNL1       -0.0210
     16 C          -1.9678    3.0486    0.2781 C.ar    1  UNL1       -0.0537
     17 C          -2.3083    4.1420   -0.4720 C.ar    1  UNL1       -0.0261
     18 C          -2.0271    4.1659   -1.8174 C.ar    1  UNL1        0.1234
     19 F          -2.3760    5.2663   -2.5435 F       1  UNL1       -0.2055
     20 C          -1.4048    3.0797   -2.3808 C.ar    1  UNL1       -0.0261
     21 C          -1.0652    1.9814   -1.6161 C.ar    1  UNL1       -0.0537
     22 N           0.3299    0.3043    0.3590 N.am    1  UNL1       -0.2605
     23 C           1.5784    0.8925   -0.0734 C.2     1  UNL1        0.3171
     24 O           1.6690    1.9431   -0.7278 O.2     1  UNL1       -0.2516
     25 N           2.6418    0.0635    0.3807 N.am    1  UNL1       -0.1897
     26 C           4.0438    0.2869    0.1652 C.ar    1  UNL1        0.0806
     27 C           4.7986    1.0243    1.0699 C.ar    1  UNL1       -0.0370
     28 C           6.1494    1.2479    0.8762 C.ar    1  UNL1       -0.0598
     29 C           6.7807    0.7271   -0.2486 C.ar    1  UNL1       -0.0589
     30 C           6.0525   -0.0101   -1.1642 C.ar    1  UNL1       -0.0246
     31 C           4.7077   -0.2118   -0.9366 C.ar    1  UNL1        0.1452
     32 F           4.0228   -0.9421   -1.8589 F       1  UNL1       -0.2035
     33 H           0.6407   -1.6854   -0.3326 H       1  UNL1        0.0601
     34 H          -0.3867   -1.2254    2.5283 H       1  UNL1        0.0337
     35 H          -0.0320   -2.7897    1.6688 H       1  UNL1        0.0337
     36 H          -3.6889    0.3627   -0.5706 H       1  UNL1        0.1657
     37 H          -5.6254   -1.7119   -0.9014 H       1  UNL1        0.0638
     38 H          -6.0557   -4.0952   -0.4523 H       1  UNL1        0.0618
     39 H          -4.3071   -5.4031    0.7114 H       1  UNL1        0.0618
     40 H          -2.1658   -4.3120    1.4042 H       1  UNL1        0.0624
     41 H          -1.0629    1.0980    1.6419 H       1  UNL1        0.0616
     42 H          -2.1972    3.0510    1.3290 H       1  UNL1        0.0622
     43 H          -2.8063    4.9948    0.0131 H       1  UNL1        0.0646
     44 H          -1.1941    3.1225   -3.4419 H       1  UNL1        0.0646
     45 H          -0.5757    1.1281   -2.0716 H       1  UNL1        0.0622
     46 H           4.3457    1.4399    1.9463 H       1  UNL1        0.0637
     47 H           6.7586    1.8097    1.5512 H       1  UNL1        0.0618
     48 H           7.8397    0.8968   -0.4099 H       1  UNL1        0.0618
     49 H           6.5237   -0.4271   -2.0505 H       1  UNL1        0.0647
@<TRIPOS>BOND
     1     1     2    2
     2     2     3    1
     3     3     4    1
     4     4     5    1
     5     5     6   ar
     6     6     7   ar
     7     7     8   ar
     8     8     9   ar
     9     9    10   ar
    10    10    11   ar
    11    11    12   ar
    12    12    13   ar
    13     6    14    1
    14    14    15    1
    15    15    16   ar
    16    16    17   ar
    17    17    18   ar
    18    18    19    1
    19    18    20   ar
    20    20    21   ar
    21    14    22    1
    22    22    23   am
    23    23    24    2
    24    23    25   am
    25    25    26    1
    26    26    27   ar
    27    27    28   ar
    28    28    29   ar
    29    29    30   ar
    30    30    31   ar
    31    31    32    1
    32    25     2   am
    33    31    26   ar
    34    22     3    1
    35    13     5   ar
    36    21    15   ar
    37    13     8   ar
    38     3    33    1
    39     4    34    1
    40     4    35    1
    41     7    36    1
    42     9    37    1
    43    10    38    1
    44    11    39    1
    45    12    40    1
    46    14    41    1
    47    16    42    1
    48    17    43    1
    49    20    44    1
    50    21    45    1
    51    27    46    1
    52    28    47    1
    53    29    48    1
    54    30    49    1
@<TRIPOS>MOLECULE
50254021
 48 48 0 0 0
SMALL
GASTEIGER

@<TRIPOS>ATOM
      1 C           6.1295   -0.5987   -1.1073 C.3     1  UNL1       -0.0440
      2 C           5.8460    0.7647   -0.6458 C.2     1  UNL1       -0.0796
      3 C           7.1118    1.7082   -0.7473 C.3     1  UNL1       -0.0440
      4 C           4.8355    1.3599   -0.1516 C.2     1  UNL1       -0.0850
      5 C           3.4580    1.0326    0.2126 C.3     1  UNL1       -0.0308
      6 C           3.0607   -0.3353   -0.1747 C.3     1  UNL1       -0.0285
      7 C           1.6173   -0.6656    0.1640 C.2     1  UNL1       -0.0748
      8 C           1.0636   -1.9748   -0.2372 C.3     1  UNL1       -0.0437
      9 C           0.9183    0.2381    0.7737 C.2     1  UNL1       -0.0681
     10 C          -0.4416    0.2259    1.2249 C.3     1  UNL1        0.0302
     11 N          -1.3087   -0.8768    1.0859 N.am    1  UNL1       -0.3117
     12 C          -2.6823   -0.6198    1.5788 C.2     1  UNL1        0.2136
     13 O          -2.9081    0.5051    2.0601 O.2     1  UNL1       -0.2758
     14 C          -3.6610   -1.7064    1.4414 C.3     1  UNL1        0.0279
     15 C          -5.0735   -1.1220    1.4312 C.3     1  UNL1       -0.0194
     16 C          -5.2805   -0.2127    0.3016 C.ar    1  UNL1       -0.0469
     17 C          -5.5301   -0.6935   -0.9798 C.ar    1  UNL1       -0.0586
     18 C          -5.7132    0.1145   -2.0846 C.ar    1  UNL1       -0.0615
     19 C          -5.6537    1.4585   -1.9402 C.ar    1  UNL1       -0.0617
     20 C          -5.4114    1.9838   -0.7050 C.ar    1  UNL1       -0.0615
     21 C          -5.2268    1.1861    0.4098 C.ar    1  UNL1       -0.0586
     22 H           5.3241   -1.3160   -0.9908 H       1  UNL1        0.0274
     23 H           6.3902   -0.6053   -2.2126 H       1  UNL1        0.0274
     24 H           7.0727   -1.0067   -0.6189 H       1  UNL1        0.0274
     25 H           7.9170    1.1601   -0.2106 H       1  UNL1        0.0274
     26 H           7.3656    1.7217   -1.8193 H       1  UNL1        0.0274
     27 H           6.8432    2.6732   -0.3444 H       1  UNL1        0.0274
     28 H           5.0804    2.4911    0.0645 H       1  UNL1        0.0572
     29 H           3.3681    1.1020    1.3412 H       1  UNL1        0.0310
     30 H           2.8074    1.8281   -0.2501 H       1  UNL1        0.0310
     31 H           3.1566   -0.5295   -1.2541 H       1  UNL1        0.0313
     32 H           3.6492   -1.0416    0.4760 H       1  UNL1        0.0313
     33 H           1.8798   -2.4517   -0.8771 H       1  UNL1        0.0274
     34 H           0.2400   -1.8782   -0.9894 H       1  UNL1        0.0274
     35 H           0.9067   -2.6990    0.5584 H       1  UNL1        0.0274
     36 H           1.4408    1.2278    1.0126 H       1  UNL1        0.0587
     37 H          -0.5191    0.6554    2.3078 H       1  UNL1        0.0506
     38 H          -0.9673    1.0888    0.6654 H       1  UNL1        0.0506
     39 H          -1.1959   -1.8179    0.7336 H       1  UNL1        0.1490
     40 H          -3.5141   -2.3560    0.5616 H       1  UNL1        0.0361
     41 H          -3.6599   -2.3878    2.3377 H       1  UNL1        0.0361
     42 H          -5.1684   -0.5286    2.3940 H       1  UNL1        0.0318
     43 H          -5.8376   -1.9024    1.4420 H       1  UNL1        0.0318
     44 H          -5.5908   -1.7621   -1.0975 H       1  UNL1        0.0620
     45 H          -5.9030   -0.2988   -3.0867 H       1  UNL1        0.0618
     46 H          -5.7957    2.1131   -2.8041 H       1  UNL1        0.0618
     47 H          -5.3637    3.0691   -0.6007 H       1  UNL1        0.0618
     48 H          -5.0757    1.6792    1.3524 H       1  UNL1        0.0620
@<TRIPOS>BOND
     1     1     2    1
     2     2     3    1
     3     2     4    2
     4     4     5    1
     5     5     6    1
     6     6     7    1
     7     7     8    1
     8     7     9    2
     9     9    10    1
    10    10    11    1
    11    11    12   am
    12    12    13    2
    13    12    14    1
    14    14    15    1
    15    15    16    1
    16    16    17   ar
    17    17    18   ar
    18    18    19   ar
    19    19    20   ar
    20    20    21   ar
    21    21    16   ar
    22     1    22    1
    23     1    23    1
    24     1    24    1
    25     3    25    1
    26     3    26    1
    27     3    27    1
    28     4    28    1
    29     5    29    1
    30     5    30    1
    31     6    31    1
    32     6    32    1
    33     8    33    1
    34     8    34    1
    35     8    35    1
    36     9    36    1
    37    10    37    1
    38    10    38    1
    39    11    39    1
    40    14    40    1
    41    14    41    1
    42    15    42    1
    43    15    43    1
    44    17    44    1
    45    18    45    1
    46    19    46    1
    47    20    47    1
    48    21    48    1
@<TRIPOS>MOLECULE
137241034
 31 33 0 0 0
SMALL
GASTEIGER

@<TRIPOS>ATOM
      1 O           3.0349   -2.3421   -0.1059 O.2     1  UNL1       -0.2692
      2 C           2.4674   -1.2454    0.0229 C.2     1  UNL1        0.2602
      3 C           1.0075   -1.2222   -0.0806 C.ar    1  UNL1        0.1373
      4 S          -0.0725    0.1289    0.0794 S.2     1  UNL1       -0.0588
      5 C          -1.6119   -0.9268   -0.2110 C.ar    1  UNL1        0.1129
      6 C          -2.9552   -0.2061   -0.1788 C.ar    1  UNL1        0.0100
      7 C          -3.0123    1.1326    0.0501 C.ar    1  UNL1       -0.0519
      8 C          -4.2511    1.7394    0.0696 C.ar    1  UNL1       -0.0584
      9 C          -5.4221    1.0399   -0.1334 C.ar    1  UNL1       -0.0264
     10 C          -5.3227   -0.3239   -0.3637 C.ar    1  UNL1        0.1240
     11 F          -6.4440   -1.0556   -0.5688 F       1  UNL1       -0.2055
     12 C          -4.0856   -0.9305   -0.3833 C.ar    1  UNL1       -0.0168
     13 N          -1.1247   -1.9378   -0.3530 N.ar    1  UNL1       -0.2047
     14 C           0.1503   -2.2497   -0.3188 C.ar    1  UNL1        0.2327
     15 O           0.6145   -3.5680   -0.5158 O.3     1  UNL1       -0.4915
     16 N           3.2205   -0.0772    0.2603 N.am    1  UNL1       -0.2716
     17 C           2.8380    1.3025    0.4383 C.3     1  UNL1        0.0406
     18 C           4.0407    2.0228   -0.1583 C.3     1  UNL1        0.0655
     19 O           4.9777    1.0452   -0.4518 O.3     1  UNL1       -0.3598
     20 C           4.6963   -0.0251    0.4012 C.3     1  UNL1        0.1162
     21 H          -2.1367    1.7469    0.2177 H       1  UNL1        0.0624
     22 H          -4.3538    2.8183    0.2501 H       1  UNL1        0.0619
     23 H          -6.4003    1.5320   -0.1157 H       1  UNL1        0.0646
     24 H          -3.9532   -2.0092   -0.5618 H       1  UNL1        0.0653
     25 H           1.0452   -4.0856    0.2230 H       1  UNL1        0.2938
     26 H           2.8706    1.5162    1.5450 H       1  UNL1        0.0488
     27 H           1.9050    1.6073   -0.0211 H       1  UNL1        0.0488
     28 H           4.4955    2.7340    0.5655 H       1  UNL1        0.0576
     29 H           3.6923    2.5326   -1.0788 H       1  UNL1        0.0576
     30 H           4.9252    0.2502    1.4350 H       1  UNL1        0.0771
     31 H           5.1645   -0.9437    0.0432 H       1  UNL1        0.0771
@<TRIPOS>BOND
     1     1     2    2
     2     2     3    1
     3     3     4   ar
     4     4     5   ar
     5     5     6    1
     6     6     7   ar
     7     7     8   ar
     8     8     9   ar
     9     9    10   ar
    10    10    11    1
    11    10    12   ar
    12     5    13   ar
    13    13    14   ar
    14    14    15    1
    15     2    16   am
    16    16    17    1
    17    17    18    1
    18    18    19    1
    19    19    20    1
    20    14     3   ar
    21    20    16    1
    22    12     6   ar
    23     7    21    1
    24     8    22    1
    25     9    23    1
    26    12    24    1
    27    15    25    1
    28    17    26    1
    29    17    27    1
    30    18    28    1
    31    18    29    1
    32    20    30    1
    33    20    31    1
@<TRIPOS>MOLECULE
50934288
 39 42 0 0 0
SMALL
GASTEIGER

@<TRIPOS>ATOM
      1 O           1.3091   -0.9633    1.4910 O.2     1  UNL1       -0.2523
      2 C           0.6832   -0.3231    0.5770 C.2     1  UNL1        0.3070
      3 N           1.4754    0.2523   -0.4314 N.am    1  UNL1       -0.2693
      4 C           2.9039    0.0778   -0.3532 C.ar    1  UNL1        0.0348
      5 C           3.4700   -1.0162   -0.9654 C.ar    1  UNL1       -0.0404
      6 C           4.8307   -1.2484   -0.9324 C.ar    1  UNL1       -0.0600
      7 C           5.6196   -0.3507   -0.2655 C.ar    1  UNL1       -0.0616
      8 C           5.0641    0.7573    0.3568 C.ar    1  UNL1       -0.0600
      9 C           3.6940    0.9864    0.3207 C.ar    1  UNL1       -0.0404
     10 N          -0.7327   -0.2557    0.6679 N.am    1  UNL1       -0.2777
     11 C          -1.3772   -0.9218    1.7980 C.3     1  UNL1        0.0212
     12 C          -2.0206    0.2012    2.5935 C.3     1  UNL1       -0.0052
     13 C          -2.7800    1.0789    1.7051 C.ar    1  UNL1       -0.0038
     14 S          -4.0659    2.1207    2.1199 S.2     1  UNL1       -0.1012
     15 C          -4.3915    2.7892    0.4327 C.ar    1  UNL1       -0.0237
     16 C          -3.4361    2.1057   -0.2769 C.ar    1  UNL1       -0.0495
     17 C          -2.6310    1.2498    0.3666 C.ar    1  UNL1       -0.0165
     18 C          -1.5158    0.4257   -0.2754 C.3     1  UNL1        0.0562
     19 C          -2.1492   -0.4405   -1.3341 C.3     1  UNL1       -0.0181
     20 C          -1.2399   -1.2021   -2.2880 C.3     1  UNL1       -0.0479
     21 C          -2.1102   -1.9059   -1.3153 C.3     1  UNL1       -0.0479
     22 H           1.0378    0.7754   -1.1944 H       1  UNL1        0.1564
     23 H           2.8151   -1.6978   -1.4791 H       1  UNL1        0.0636
     24 H           5.2020   -2.1285   -1.4359 H       1  UNL1        0.0618
     25 H           6.7045   -0.5267   -0.2335 H       1  UNL1        0.0618
     26 H           5.7301    1.4290    0.8657 H       1  UNL1        0.0618
     27 H           3.2602    1.8497    0.8054 H       1  UNL1        0.0636
     28 H          -0.6041   -1.4221    2.4066 H       1  UNL1        0.0468
     29 H          -2.1298   -1.6564    1.5222 H       1  UNL1        0.0468
     30 H          -1.2135    0.6892    3.1712 H       1  UNL1        0.0334
     31 H          -2.7202   -0.2755    3.3064 H       1  UNL1        0.0334
     32 H          -5.1559    3.5161    0.2032 H       1  UNL1        0.0693
     33 H          -3.3906    2.3149   -1.3820 H       1  UNL1        0.0626
     34 H          -0.8629    1.1396   -0.8491 H       1  UNL1        0.0554
     35 H          -3.0803   -0.0195   -1.8369 H       1  UNL1        0.0322
     36 H          -1.5214   -1.1761   -3.3792 H       1  UNL1        0.0269
     37 H          -0.1496   -1.2207   -2.1251 H       1  UNL1        0.0269
     38 H          -1.5745   -2.5258   -0.5737 H       1  UNL1        0.0269
     39 H          -2.9467   -2.4821   -1.7839 H       1  UNL1        0.0269
@<TRIPOS>BOND
     1     1     2    2
     2     2     3   am
     3     3     4    1
     4     4     5   ar
     5     5     6   ar
     6     6     7   ar
     7     7     8   ar
     8     8     9   ar
     9     2    10   am
    10    10    11    1
    11    11    12    1
    12    12    13    1
    13    13    14   ar
    14    14    15   ar
    15    15    16   ar
    16    16    17   ar
    17    17    18    1
    18    18    19    1
    19    19    20    1
    20    20    21    1
    21     9     4   ar
    22    18    10    1
    23    21    19    1
    24    17    13   ar
    25     3    22    1
    26     5    23    1
    27     6    24    1
    28     7    25    1
    29     8    26    1
    30     9    27    1
    31    11    28    1
    32    11    29    1
    33    12    30    1
    34    12    31    1
    35    15    32    1
    36    16    33    1
    37    18    34    1
    38    19    35    1
    39    20    36    1
    40    20    37    1
    41    21    38    1
    42    21    39    1
@<TRIPOS>MOLECULE
CHEMBL3908765
 46 48 0 0 0
SMALL
GASTEIGER

@<TRIPOS>ATOM
      1 N           0.6832    2.0062    2.6469 N.am    1  UNL1       -0.3275
      2 C           0.9673    0.6767    2.3282 C.2     1  UNL1        0.2356
      3 O           1.4449   -0.0306    3.2857 O.2     1  UNL1       -0.2736
      4 C           0.7661    0.0195    1.0112 C.3     1  UNL1        0.1278
      5 C          -0.5173   -0.7084    1.0813 C.ar    1  UNL1       -0.0182
      6 C          -1.1945   -1.2001   -0.0391 C.ar    1  UNL1       -0.0563
      7 C          -2.3962   -1.8598    0.0545 C.ar    1  UNL1       -0.0614
      8 C          -2.9636   -2.0486    1.2877 C.ar    1  UNL1       -0.0617
      9 C          -2.3400   -1.5864    2.4061 C.ar    1  UNL1       -0.0614
     10 C          -1.1308   -0.9245    2.2917 C.ar    1  UNL1       -0.0563
     11 N           0.8643    0.9443   -0.0827 N.am    1  UNL1       -0.2776
     12 C          -0.0790    1.9857   -0.2794 C.3     1  UNL1        0.0425
     13 C          -1.3792    1.7260   -0.8511 C.ar    1  UNL1       -0.0118
     14 C          -2.4453    1.7946    0.0847 C.ar    1  UNL1       -0.0557
     15 C          -3.7318    1.6023   -0.2710 C.ar    1  UNL1       -0.0614
     16 C          -4.0702    1.3282   -1.5706 C.ar    1  UNL1       -0.0604
     17 C          -3.0413    1.2627   -2.4737 C.ar    1  UNL1       -0.0431
     18 C          -1.7006    1.4598   -2.1214 C.ar    1  UNL1        0.0456
     19 CL         -0.5630    1.3294   -3.4332 Cl      1  UNL1       -0.0832
     20 C           1.8694    0.7392   -1.0370 C.2     1  UNL1        0.2478
     21 O           2.0359    1.5418   -1.9808 O.2     1  UNL1       -0.2699
     22 C           2.7774   -0.3880   -1.0071 C.ar    1  UNL1        0.0369
     23 C           4.1176   -0.1474   -0.6649 C.ar    1  UNL1       -0.0496
     24 C           5.0470   -1.1631   -0.6416 C.ar    1  UNL1       -0.0610
     25 C           4.6207   -2.4622   -0.9700 C.ar    1  UNL1       -0.0617
     26 C           3.2980   -2.6568   -1.2996 C.ar    1  UNL1       -0.0610
     27 C           2.3633   -1.6681   -1.3308 C.ar    1  UNL1       -0.0496
     28 H           1.3375    2.8213    2.6433 H       1  UNL1        0.1450
     29 H          -0.3306    2.2141    2.9323 H       1  UNL1        0.1450
     30 H           1.5659   -0.7669    0.8573 H       1  UNL1        0.0648
     31 H          -0.7554   -1.0533   -1.0102 H       1  UNL1        0.0621
     32 H          -2.9141   -2.2367   -0.8426 H       1  UNL1        0.0618
     33 H          -3.9113   -2.5665    1.3837 H       1  UNL1        0.0618
     34 H          -2.7817   -1.7330    3.3764 H       1  UNL1        0.0618
     35 H          -0.7191   -0.5992    3.2563 H       1  UNL1        0.0621
     36 H          -0.1623    2.6215    0.6350 H       1  UNL1        0.0515
     37 H           0.3887    2.7823   -1.0073 H       1  UNL1        0.0515
     38 H          -2.2446    2.0083    1.1405 H       1  UNL1        0.0621
     39 H          -4.5139    1.6586    0.4963 H       1  UNL1        0.0618
     40 H          -5.1159    1.1764   -1.8574 H       1  UNL1        0.0618
     41 H          -3.3112    1.0415   -3.5012 H       1  UNL1        0.0632
     42 H           4.4676    0.8370   -0.4152 H       1  UNL1        0.0625
     43 H           6.0840   -1.0467   -0.3936 H       1  UNL1        0.0618
     44 H           5.3443   -3.2614   -0.9584 H       1  UNL1        0.0618
     45 H           2.9368   -3.6658   -1.5621 H       1  UNL1        0.0618
     46 H           1.3333   -1.8041   -1.5972 H       1  UNL1        0.0625
@<TRIPOS>BOND
     1     1     2   am
     2     2     3    2
     3     2     4    1
     4     4     5    1
     5     5     6   ar
     6     6     7   ar
     7     7     8   ar
     8     8     9   ar
     9     9    10   ar
    10     4    11    1
    11    11    12    1
    12    12    13    1
    13    13    14   ar
    14    14    15   ar
    15    15    16   ar
    16    16    17   ar
    17    17    18   ar
    18    18    19    1
    19    11    20   am
    20    20    21    2
    21    20    22    1
    22    22    23   ar
    23    23    24   ar
    24    24    25   ar
    25    25    26   ar
    26    26    27   ar
    27    10     5   ar
    28    18    13   ar
    29    27    22   ar
    30     1    28    1
    31     1    29    1
    32     4    30    1
    33     6    31    1
    34     7    32    1
    35     8    33    1
    36     9    34    1
    37    10    35    1
    38    12    36    1
    39    12    37    1
    40    14    38    1
    41    15    39    1
    42    16    40    1
    43    17    41    1
    44    23    42    1
    45    24    43    1
    46    25    44    1
    47    26    45    1
    48    27    46    1
@<TRIPOS>MOLECULE
59022
 44 46 0 0 0
SMALL
GASTEIGER

@<TRIPOS>ATOM
      1 C          -3.2702    1.4007   -2.3127 C.3     1  UNL1       -0.0130
      2 N          -3.9761    0.1718   -2.0599 N.3     1  UNL1       -0.3080
      3 C          -5.3664    0.4134   -1.8063 C.3     1  UNL1       -0.0130
      4 C          -3.3289   -0.5886   -1.0211 C.3     1  UNL1        0.0024
      5 C          -3.4207    0.0523    0.3268 C.3     1  UNL1       -0.0129
      6 C          -2.7189   -0.8203    1.3145 C.ar    1  UNL1       -0.0210
      7 C          -3.2750   -1.6676    2.2554 C.ar    1  UNL1        0.0059
      8 N          -2.2582   -2.2486    2.9233 N.ar    1  UNL1       -0.3604
      9 C          -1.0836   -1.7893    2.4276 C.ar    1  UNL1        0.0470
     10 C           0.2449   -2.0447    2.7378 C.ar    1  UNL1       -0.0343
     11 C           1.2481   -1.4081    2.0421 C.ar    1  UNL1       -0.0179
     12 C           1.0221   -0.5050    1.0257 C.ar    1  UNL1        0.1217
     13 O           2.0347    0.1365    0.3245 O.3     1  UNL1       -0.4874
     14 C           3.3687   -0.1760    0.7021 C.3     1  UNL1        0.1146
     15 C           4.3589    0.5541   -0.1074 C.ar    1  UNL1       -0.0104
     16 C           4.8356   -0.0041   -1.2696 C.ar    1  UNL1       -0.0554
     17 C           5.7620    0.6341   -2.0778 C.ar    1  UNL1       -0.0614
     18 C           6.2382    1.8803   -1.7199 C.ar    1  UNL1       -0.0617
     19 C           5.7740    2.4623   -0.5552 C.ar    1  UNL1       -0.0614
     20 C           4.8392    1.7968    0.2420 C.ar    1  UNL1       -0.0554
     21 C          -0.3206   -0.2524    0.7186 C.ar    1  UNL1       -0.0105
     22 C          -1.3265   -0.8886    1.4139 C.ar    1  UNL1        0.0063
     23 H          -3.2543    2.0022   -1.3837 H       1  UNL1        0.0391
     24 H          -2.2563    1.1425   -2.6747 H       1  UNL1        0.0391
     25 H          -3.8540    1.9405   -3.1072 H       1  UNL1        0.0391
     26 H          -5.8230   -0.3913   -1.1975 H       1  UNL1        0.0391
     27 H          -5.8908    0.4418   -2.8067 H       1  UNL1        0.0391
     28 H          -5.4875    1.4141   -1.3727 H       1  UNL1        0.0391
     29 H          -3.8210   -1.5947   -0.9342 H       1  UNL1        0.0429
     30 H          -2.2683   -0.7357   -1.2956 H       1  UNL1        0.0429
     31 H          -2.8879    1.0318    0.3709 H       1  UNL1        0.0326
     32 H          -4.4587    0.1905    0.6607 H       1  UNL1        0.0326
     33 H          -4.3372   -1.8124    2.4011 H       1  UNL1        0.0810
     34 H          -2.3523   -2.9433    3.7004 H       1  UNL1        0.1653
     35 H           0.4413   -2.7511    3.5334 H       1  UNL1        0.0639
     36 H           2.2900   -1.6228    2.3015 H       1  UNL1        0.0655
     37 H           3.4630   -1.2787    0.6364 H       1  UNL1        0.0748
     38 H           3.4344    0.0876    1.7900 H       1  UNL1        0.0748
     39 H           4.4886   -0.9896   -1.5957 H       1  UNL1        0.0621
     40 H           6.1457    0.2081   -2.9942 H       1  UNL1        0.0618
     41 H           6.9616    2.3974   -2.3344 H       1  UNL1        0.0618
     42 H           6.1656    3.4379   -0.3027 H       1  UNL1        0.0618
     43 H           4.4879    2.2702    1.1514 H       1  UNL1        0.0621
     44 H          -0.5681    0.4463   -0.0689 H       1  UNL1        0.0661
@<TRIPOS>BOND
     1     1     2    1
     2     2     3    1
     3     2     4    1
     4     4     5    1
     5     5     6    1
     6     6     7   ar
     7     7     8   ar
     8     8     9   ar
     9     9    10   ar
    10    10    11   ar
    11    11    12   ar
    12    12    13    1
    13    13    14    1
    14    14    15    1
    15    15    16   ar
    16    16    17   ar
    17    17    18   ar
    18    18    19   ar
    19    19    20   ar
    20    12    21   ar
    21    21    22   ar
    22    22     6   ar
    23    22     9   ar
    24    20    15   ar
    25     1    23    1
    26     1    24    1
    27     1    25    1
    28     3    26    1
    29     3    27    1
    30     3    28    1
    31     4    29    1
    32     4    30    1
    33     5    31    1
    34     5    32    1
    35     7    33    1
    36     8    34    1
    37    10    35    1
    38    11    36    1
    39    14    37    1
    40    14    38    1
    41    16    39    1
    42    17    40    1
    43    18    41    1
    44    19    42    1
    45    20    43    1
    46    21    44    1
@<TRIPOS>MOLECULE
50333154
 36 38 0 0 0
SMALL
GASTEIGER

@<TRIPOS>ATOM
      1 O           1.6464   -1.7082   -1.6812 O.2     1  UNL1       -0.2519
      2 C           1.0310   -0.8951   -0.9207 C.2     1  UNL1        0.3111
      3 N          -0.3878   -0.8433   -0.8842 N.am    1  UNL1       -0.2687
      4 C          -1.0351    0.0799   -0.0203 C.2     1  UNL1        0.0395
      5 C          -2.5211    0.1171    0.0019 C.ar    1  UNL1       -0.0036
      6 C          -3.2154    0.9839    0.8121 C.ar    1  UNL1       -0.0464
      7 C          -4.6109    0.9884    0.8043 C.ar    1  UNL1        0.0162
      8 C          -5.3500    0.1467    0.0054 C.ar    1  UNL1        0.2732
      9 N          -6.7749    0.1810    0.0254 N.pl3   1  UNL1        0.0796
     10 O          -7.4061    0.9623    0.7556 O.2     1  UNL1        0.0414
     11 O          -7.4905   -0.6673   -0.7795 O.co2   1  UNL1       -0.5760
     12 C          -4.6587   -0.7091   -0.7945 C.ar    1  UNL1        0.0162
     13 C          -3.2597   -0.7228   -0.7953 C.ar    1  UNL1       -0.0464
     14 C          -0.3380    0.8755    0.7350 C.2     1  UNL1       -0.0445
     15 C           1.1275    0.8967    0.7675 C.3     1  UNL1        0.0415
     16 N           1.7772   -0.0310   -0.1005 N.am    1  UNL1       -0.2480
     17 C           3.2140   -0.0462   -0.1025 C.ar    1  UNL1        0.0795
     18 C           3.8381    0.7939   -1.0024 C.ar    1  UNL1       -0.0367
     19 C           5.2167    0.8376   -1.0664 C.ar    1  UNL1       -0.0598
     20 C           5.9734    0.0405   -0.2296 C.ar    1  UNL1       -0.0582
     21 C           5.3511   -0.8128    0.6842 C.ar    1  UNL1       -0.0183
     22 C           3.9625   -0.8274    0.7174 C.ar    1  UNL1        0.1382
     23 O           3.3175   -1.6766    1.6272 O.3     1  UNL1       -0.5049
     24 H          -0.8965   -1.5041   -1.5108 H       1  UNL1        0.1564
     25 H          -2.7473    1.6870    1.4781 H       1  UNL1        0.0626
     26 H          -5.1534    1.6800    1.4508 H       1  UNL1        0.0685
     27 H          -5.2203   -1.3922   -1.4425 H       1  UNL1        0.0685
     28 H          -2.7761   -1.4250   -1.4523 H       1  UNL1        0.0626
     29 H          -0.9049    1.5758    1.3896 H       1  UNL1        0.0606
     30 H           1.4511    0.6117    1.8206 H       1  UNL1        0.0513
     31 H           1.5315    1.9352    0.6632 H       1  UNL1        0.0513
     32 H           3.2621    1.4229   -1.6630 H       1  UNL1        0.0637
     33 H           5.7170    1.4918   -1.7673 H       1  UNL1        0.0618
     34 H           7.0609    0.0489   -0.2523 H       1  UNL1        0.0619
     35 H           5.9425   -1.4343    1.3367 H       1  UNL1        0.0655
     36 H           3.3264   -2.6612    1.3901 H       1  UNL1        0.2922
@<TRIPOS>UNITY_ATOM_ATTR
9 1
charge 1
11 1
charge -1
@<TRIPOS>BOND
     1     1     2    2
     2     2     3   am
     3     3     4    1
     4     4     5    1
     5     5     6   ar
     6     6     7   ar
     7     7     8   ar
     8     8     9    1
     9     9    10    2
    10     9    11    1
    11     8    12   ar
    12    12    13   ar
    13     4    14    2
    14    14    15    1
    15    15    16    1
    16    16    17    1
    17    17    18   ar
    18    18    19   ar
    19    19    20   ar
    20    20    21   ar
    21    21    22   ar
    22    22    23    1
    23    16     2   am
    24    22    17   ar
    25    13     5   ar
    26     3    24    1
    27     6    25    1
    28     7    26    1
    29    12    27    1
    30    13    28    1
    31    14    29    1
    32    15    30    1
    33    15    31    1
    34    18    32    1
    35    19    33    1
    36    20    34    1
    37    21    35    1
    38    23    36    1
@<TRIPOS>MOLECULE
50333163
 38 41 0 0 0
SMALL
GASTEIGER

@<TRIPOS>ATOM
      1 O           1.5645   -0.3985   -2.6253 O.2     1  UNL1       -0.2519
      2 C           0.8758   -0.2145   -1.5891 C.2     1  UNL1        0.3111
      3 N          -0.5402   -0.3549   -1.5731 N.am    1  UNL1       -0.2685
      4 C          -1.2332   -0.1268   -0.3558 C.2     1  UNL1        0.0429
      5 C          -0.6256    0.2102    0.7654 C.2     1  UNL1       -0.0298
      6 C          -1.3083    0.4594    2.0647 C.3     1  UNL1       -0.0242
      7 C          -2.7617    0.3171    2.0888 C.3     1  UNL1       -0.0233
      8 C          -3.3957   -0.0573    0.8261 C.ar    1  UNL1       -0.0382
      9 C          -4.7813   -0.1919    0.8531 C.ar    1  UNL1       -0.0579
     10 C          -5.4683   -0.5368   -0.2668 C.ar    1  UNL1       -0.0615
     11 C          -4.7544   -0.7467   -1.4190 C.ar    1  UNL1       -0.0611
     12 C          -3.3612   -0.6204   -1.4832 C.ar    1  UNL1       -0.0526
     13 C          -2.6985   -0.2734   -0.3441 C.ar    1  UNL1       -0.0006
     14 C           0.8580    0.3797    0.8402 C.3     1  UNL1        0.0445
     15 N           1.5264    0.1472   -0.3855 N.am    1  UNL1       -0.2477
     16 C           2.9631    0.2911   -0.3965 C.ar    1  UNL1        0.0795
     17 C           3.5735    1.4947   -0.6795 C.ar    1  UNL1       -0.0367
     18 C           4.9476    1.6447   -0.6931 C.ar    1  UNL1       -0.0598
     19 C           5.7462    0.5553   -0.4143 C.ar    1  UNL1       -0.0582
     20 C           5.1371   -0.6536   -0.1300 C.ar    1  UNL1       -0.0183
     21 C           3.7525   -0.8027   -0.1168 C.ar    1  UNL1        0.1382
     22 O           3.1418   -2.0166    0.1687 O.3     1  UNL1       -0.5049
     23 H          -1.0016   -0.6255   -2.4840 H       1  UNL1        0.1564
     24 H          -0.7848   -0.1648    2.8179 H       1  UNL1        0.0314
     25 H          -1.0417    1.5221    2.3398 H       1  UNL1        0.0314
     26 H          -3.0252   -0.4954    2.8303 H       1  UNL1        0.0316
     27 H          -3.3164    1.2135    2.4757 H       1  UNL1        0.0316
     28 H          -5.3379   -0.0224    1.7754 H       1  UNL1        0.0620
     29 H          -6.5607   -0.6560   -0.2989 H       1  UNL1        0.0618
     30 H          -5.2474   -1.0221   -2.3366 H       1  UNL1        0.0618
     31 H          -2.8588   -0.8003   -2.4248 H       1  UNL1        0.0624
     32 H           1.2739   -0.3307    1.6040 H       1  UNL1        0.0516
     33 H           1.0083    1.4147    1.2416 H       1  UNL1        0.0516
     34 H           2.9782    2.3581   -0.8998 H       1  UNL1        0.0637
     35 H           5.4470    2.5783   -0.9122 H       1  UNL1        0.0618
     36 H           6.8255    0.6288   -0.4142 H       1  UNL1        0.0619
     37 H           5.7676   -1.5015    0.0871 H       1  UNL1        0.0655
     38 H           2.7159   -2.6023   -0.5363 H       1  UNL1        0.2922
@<TRIPOS>BOND
     1     1     2    2
     2     2     3   am
     3     3     4    1
     4     4     5    2
     5     5     6    1
     6     6     7    1
     7     7     8    1
     8     8     9   ar
     9     9    10   ar
    10    10    11   ar
    11    11    12   ar
    12    12    13   ar
    13     5    14    1
    14    14    15    1
    15    15    16    1
    16    16    17   ar
    17    17    18   ar
    18    18    19   ar
    19    19    20   ar
    20    20    21   ar
    21    21    22    1
    22    15     2   am
    23    21    16   ar
    24    13     4    1
    25    13     8   ar
    26     3    23    1
    27     6    24    1
    28     6    25    1
    29     7    26    1
    30     7    27    1
    31     9    28    1
    32    10    29    1
    33    11    30    1
    34    12    31    1
    35    14    32    1
    36    14    33    1
    37    17    34    1
    38    18    35    1
    39    19    36    1
    40    20    37    1
    41    22    38    1
@<TRIPOS>MOLECULE
51027994
 41 42 0 0 0
SMALL
GASTEIGER

@<TRIPOS>ATOM
      1 C           6.9313    0.0921    0.1387 C.3     1  UNL1        0.0788
      2 O           6.0395   -0.8127    0.7969 O.3     1  UNL1       -0.4951
      3 C           4.6768   -0.7755    0.5900 C.ar    1  UNL1        0.1201
      4 C           4.0574    0.1215   -0.2556 C.ar    1  UNL1       -0.0192
      5 C           2.6684    0.1139   -0.4276 C.ar    1  UNL1       -0.0443
      6 C           1.9188   -0.8129    0.2674 C.ar    1  UNL1        0.0596
      7 C           0.4653   -0.8391    0.1030 C.2     1  UNL1        0.3445
      8 O          -0.2188   -1.6847    0.7372 O.2     1  UNL1       -0.2445
      9 O          -0.2091    0.0269   -0.7231 O.3     1  UNL1       -0.4221
     10 C          -1.5903   -0.0130   -0.8666 C.ar    1  UNL1        0.1356
     11 C          -2.1728   -0.8144   -1.8531 C.ar    1  UNL1       -0.0160
     12 C          -3.5402   -0.8802   -2.0262 C.ar    1  UNL1       -0.0470
     13 C          -4.1772   -1.7302   -3.0740 C.3     1  UNL1       -0.0396
     14 C          -4.3243   -0.1230   -1.1873 C.ar    1  UNL1       -0.0583
     15 C          -3.7508    0.6709   -0.2102 C.ar    1  UNL1       -0.0546
     16 C          -2.3868    0.7379   -0.0359 C.ar    1  UNL1       -0.0024
     17 C          -1.8255    1.5995    1.0202 C.3     1  UNL1       -0.0180
     18 C          -1.6766    0.8557    2.3268 C.3     1  UNL1       -0.0585
     19 C          -2.7368    2.7807    1.2926 C.3     1  UNL1       -0.0585
     20 C           2.5302   -1.7107    1.1127 C.ar    1  UNL1       -0.0443
     21 C           3.9160   -1.7045    1.2855 C.ar    1  UNL1       -0.0192
     22 H           6.7836    1.1068    0.5610 H       1  UNL1        0.0660
     23 H           7.9729   -0.2269    0.2355 H       1  UNL1        0.0660
     24 H           6.6114    0.1662   -0.9408 H       1  UNL1        0.0660
     25 H           4.6882    0.8216   -0.7722 H       1  UNL1        0.0654
     26 H           2.2369    0.8422   -1.1050 H       1  UNL1        0.0627
     27 H          -1.5439   -1.4100   -2.5122 H       1  UNL1        0.0657
     28 H          -3.4898   -1.9207   -3.9003 H       1  UNL1        0.0278
     29 H          -5.0973   -1.1899   -3.4126 H       1  UNL1        0.0278
     30 H          -4.5338   -2.6484   -2.5664 H       1  UNL1        0.0278
     31 H          -5.4108   -0.1655   -1.3132 H       1  UNL1        0.0620
     32 H          -4.3823    1.2679    0.4503 H       1  UNL1        0.0622
     33 H          -0.8217    1.9251    0.6805 H       1  UNL1        0.0345
     34 H          -2.2763    1.2963    3.1471 H       1  UNL1        0.0235
     35 H          -2.0266   -0.1856    2.1674 H       1  UNL1        0.0235
     36 H          -0.6126    0.8814    2.7003 H       1  UNL1        0.0235
     37 H          -3.2615    3.0573    0.3337 H       1  UNL1        0.0235
     38 H          -3.5452    2.4848    1.9915 H       1  UNL1        0.0235
     39 H          -2.1550    3.6446    1.6468 H       1  UNL1        0.0235
     40 H           1.9125   -2.4223    1.6409 H       1  UNL1        0.0627
     41 H           4.3569   -2.4231    1.9558 H       1  UNL1        0.0654
@<TRIPOS>BOND
     1     1     2    1
     2     2     3    1
     3     3     4   ar
     4     4     5   ar
     5     5     6   ar
     6     6     7    1
     7     7     8    2
     8     7     9    1
     9     9    10    1
    10    10    11   ar
    11    11    12   ar
    12    12    13    1
    13    12    14   ar
    14    14    15   ar
    15    15    16   ar
    16    16    17    1
    17    17    18    1
    18    17    19    1
    19     6    20   ar
    20    20    21   ar
    21    21     3   ar
    22    16    10   ar
    23     1    22    1
    24     1    23    1
    25     1    24    1
    26     4    25    1
    27     5    26    1
    28    11    27    1
    29    13    28    1
    30    13    29    1
    31    13    30    1
    32    14    31    1
    33    15    32    1
    34    17    33    1
    35    18    34    1
    36    18    35    1
    37    18    36    1
    38    19    37    1
    39    19    38    1
    40    19    39    1
    41    20    40    1
    42    21    41    1
@<TRIPOS>MOLECULE
50254016
 47 47 0 0 0
SMALL
GASTEIGER

@<TRIPOS>ATOM
      1 C           5.7993    0.6694    0.2174 C.3     1  UNL1       -0.0440
      2 C           4.6705    1.6008    0.3928 C.2     1  UNL1       -0.0796
      3 C           4.6070    2.4282    1.6162 C.3     1  UNL1       -0.0440
      4 C           3.7346    1.6976   -0.5192 C.2     1  UNL1       -0.0850
      5 C           3.8090    0.8548   -1.7497 C.3     1  UNL1       -0.0308
      6 C           2.5407    0.0762   -1.8683 C.3     1  UNL1       -0.0285
      7 C           2.2590   -0.8304   -0.7396 C.2     1  UNL1       -0.0731
      8 C           3.1641   -1.9620   -0.3653 C.3     1  UNL1       -0.0437
      9 C           1.1562   -0.6558   -0.0246 C.2     1  UNL1       -0.0480
     10 C           0.7597   -1.4993    1.1337 C.3     1  UNL1        0.1109
     11 O          -0.4917   -2.1345    0.9199 O.3     1  UNL1       -0.4602
     12 C          -1.6368   -1.4230    0.7014 C.2     1  UNL1        0.3117
     13 O          -1.6212   -0.1668    0.6819 O.2     1  UNL1       -0.2505
     14 C          -2.9481   -2.1245    0.4779 C.3     1  UNL1        0.0701
     15 C          -4.0355   -1.1602    0.2653 C.ar    1  UNL1       -0.0367
     16 C          -4.7592   -0.6857    1.3453 C.ar    1  UNL1       -0.0578
     17 C          -5.7866    0.2215    1.1730 C.ar    1  UNL1       -0.0586
     18 C          -6.1017    0.6646   -0.0831 C.ar    1  UNL1       -0.0504
     19 C          -7.2075    1.6487   -0.3246 C.3     1  UNL1       -0.0397
     20 C          -5.3909    0.1997   -1.1510 C.ar    1  UNL1       -0.0586
     21 C          -4.3466   -0.7182   -1.0070 C.ar    1  UNL1       -0.0578
     22 H           5.4830   -0.3865    0.1881 H       1  UNL1        0.0274
     23 H           6.3093    0.9720   -0.7417 H       1  UNL1        0.0274
     24 H           6.5286    0.7655    1.0523 H       1  UNL1        0.0274
     25 H           3.5615    2.4870    1.9445 H       1  UNL1        0.0274
     26 H           4.8979    3.4707    1.3064 H       1  UNL1        0.0274
     27 H           5.2891    2.0430    2.4097 H       1  UNL1        0.0274
     28 H           2.9143    2.3972   -0.3597 H       1  UNL1        0.0572
     29 H           4.7144    0.2424   -1.7624 H       1  UNL1        0.0310
     30 H           3.8647    1.5106   -2.6588 H       1  UNL1        0.0310
     31 H           1.7142    0.8397   -1.9334 H       1  UNL1        0.0313
     32 H           2.4721   -0.4566   -2.8538 H       1  UNL1        0.0313
     33 H           2.6298   -2.9233   -0.4533 H       1  UNL1        0.0274
     34 H           3.5985   -1.8290    0.6488 H       1  UNL1        0.0274
     35 H           4.0255   -2.0216   -1.0689 H       1  UNL1        0.0274
     36 H           0.4936    0.1551   -0.2973 H       1  UNL1        0.0605
     37 H           1.5322   -2.2054    1.4408 H       1  UNL1        0.0743
     38 H           0.5903   -0.7933    1.9982 H       1  UNL1        0.0743
     39 H          -3.1614   -2.8572    1.2754 H       1  UNL1        0.0426
     40 H          -2.8226   -2.7111   -0.4601 H       1  UNL1        0.0426
     41 H          -4.5469   -1.0060    2.3496 H       1  UNL1        0.0620
     42 H          -6.3449    0.5852    2.0220 H       1  UNL1        0.0620
     43 H          -6.9222    2.6721   -0.0312 H       1  UNL1        0.0278
     44 H          -8.0646    1.2777    0.2939 H       1  UNL1        0.0278
     45 H          -7.5259    1.6203   -1.3806 H       1  UNL1        0.0278
     46 H          -5.6037    0.5197   -2.1504 H       1  UNL1        0.0620
     47 H          -3.8009   -1.0690   -1.8715 H       1  UNL1        0.0620
@<TRIPOS>BOND
     1     1     2    1
     2     2     3    1
     3     2     4    2
     4     4     5    1
     5     5     6    1
     6     6     7    1
     7     7     8    1
     8     7     9    2
     9     9    10    1
    10    10    11    1
    11    11    12    1
    12    12    13    2
    13    12    14    1
    14    14    15    1
    15    15    16   ar
    16    16    17   ar
    17    17    18   ar
    18    18    19    1
    19    18    20   ar
    20    20    21   ar
    21    21    15   ar
    22     1    22    1
    23     1    23    1
    24     1    24    1
    25     3    25    1
    26     3    26    1
    27     3    27    1
    28     4    28    1
    29     5    29    1
    30     5    30    1
    31     6    31    1
    32     6    32    1
    33     8    33    1
    34     8    34    1
    35     8    35    1
    36     9    36    1
    37    10    37    1
    38    10    38    1
    39    14    39    1
    40    14    40    1
    41    16    41    1
    42    17    42    1
    43    19    43    1
    44    19    44    1
    45    19    45    1
    46    20    46    1
    47    21    47    1
@<TRIPOS>MOLECULE
CHEMBL5274774
 86 85 0 0 0
SMALL
GASTEIGER

@<TRIPOS>ATOM
      1 C          11.8856    1.2001   -2.0413 C.3     1  UNL1       -0.0475
      2 C          11.5025   -0.2349   -1.8212 C.3     1  UNL1        0.0285
      3 N          12.1774   -1.0357   -2.8288 N.3     1  UNL1       -0.3253
      4 C          10.0273   -0.3885   -2.0363 C.3     1  UNL1        0.0735
      5 O           9.7201    0.0599   -3.3122 O.3     1  UNL1       -0.3900
      6 C           9.2083    0.4065   -1.0407 C.3     1  UNL1       -0.0072
      7 C           9.4486    0.0213    0.3433 C.2     1  UNL1       -0.0852
      8 C           8.5327   -0.4336    1.1645 C.2     1  UNL1       -0.0841
      9 C           7.0761   -0.6337    0.8179 C.3     1  UNL1       -0.0165
     10 C           6.2010    0.1440    1.6708 C.2     1  UNL1       -0.0839
     11 C           5.3657    1.0478    1.2307 C.2     1  UNL1       -0.0839
     12 C           5.2034    1.3865   -0.1328 C.3     1  UNL1       -0.0165
     13 C           3.9660    1.2421   -0.8682 C.2     1  UNL1       -0.0839
     14 C           2.7947    0.7670   -0.5656 C.2     1  UNL1       -0.0839
     15 C           2.4692    0.2045    0.7524 C.3     1  UNL1       -0.0165
     16 C           1.9227   -1.1959    0.6105 C.2     1  UNL1       -0.0839
     17 C           0.7022   -1.4225    1.0074 C.2     1  UNL1       -0.0839
     18 C          -0.1244   -0.3167    1.5787 C.3     1  UNL1       -0.0165
     19 C          -0.5258   -0.5544    2.9480 C.2     1  UNL1       -0.0839
     20 C          -1.7397   -0.5783    3.4077 C.2     1  UNL1       -0.0839
     21 C          -2.9091   -0.3449    2.5259 C.3     1  UNL1       -0.0165
     22 C          -3.6637    0.8476    3.0603 C.2     1  UNL1       -0.0842
     23 C          -4.9134    0.7359    3.4405 C.2     1  UNL1       -0.0876
     24 C          -5.7126   -0.4951    3.4040 C.3     1  UNL1       -0.0348
     25 C          -6.9459   -0.3153    2.4903 C.3     1  UNL1       -0.0496
     26 C          -6.5112    0.0081    1.1012 C.3     1  UNL1       -0.0528
     27 C          -7.7089    0.2245    0.1462 C.3     1  UNL1       -0.0530
     28 C          -8.5470   -0.9824    0.0521 C.3     1  UNL1       -0.0507
     29 C          -9.7798   -1.0161   -0.7165 C.3     1  UNL1       -0.0254
     30 C          -9.8948   -0.7629   -2.1610 C.3     1  UNL1        0.0701
     31 O         -11.3483   -1.0233   -2.3797 O.3     1  UNL1       -0.3903
     32 C          -9.8198    0.6416   -2.6676 C.3     1  UNL1        0.0282
     33 C         -10.3925    0.6565   -4.1050 C.3     1  UNL1       -0.0475
     34 N          -8.5819    1.2909   -2.7172 N.3     1  UNL1       -0.3253
     35 H          11.3580    1.5569   -2.9516 H       1  UNL1        0.0245
     36 H          12.9728    1.3154   -2.2393 H       1  UNL1        0.0245
     37 H          11.6309    1.8595   -1.1884 H       1  UNL1        0.0245
     38 H          11.8375   -0.6230   -0.8359 H       1  UNL1        0.0481
     39 H          13.2076   -1.0223   -2.6957 H       1  UNL1        0.1185
     40 H          11.8098   -2.0133   -2.8657 H       1  UNL1        0.1185
     41 H           9.7722   -1.4665   -1.9893 H       1  UNL1        0.0612
     42 H           9.0544   -0.5287   -3.7301 H       1  UNL1        0.2099
     43 H           8.1669    0.2965   -1.3532 H       1  UNL1        0.0333
     44 H           9.5644    1.4723   -1.1525 H       1  UNL1        0.0333
     45 H          10.4759    0.1109    0.7558 H       1  UNL1        0.0570
     46 H           8.8765   -0.6855    2.1885 H       1  UNL1        0.0572
     47 H           6.9088   -1.7236    1.1633 H       1  UNL1        0.0350
     48 H           6.8783   -0.6974   -0.2389 H       1  UNL1        0.0350
     49 H           6.2563   -0.0518    2.7586 H       1  UNL1        0.0572
     50 H           4.7498    1.6308    1.9796 H       1  UNL1        0.0572
     51 H           6.0031    0.9623   -0.8230 H       1  UNL1        0.0350
     52 H           5.4452    2.5395   -0.1938 H       1  UNL1        0.0350
     53 H           4.0185    1.6329   -1.9656 H       1  UNL1        0.0572
     54 H           1.9710    0.7813   -1.3533 H       1  UNL1        0.0572
     55 H           1.9566    0.8493    1.4483 H       1  UNL1        0.0350
     56 H           3.4449   -0.0474    1.3077 H       1  UNL1        0.0350
     57 H           2.5529   -1.9683    0.1863 H       1  UNL1        0.0572
     58 H           0.2617   -2.4098    0.9330 H       1  UNL1        0.0572
     59 H           0.2252    0.6882    1.4433 H       1  UNL1        0.0350
     60 H          -1.0456   -0.3662    0.8846 H       1  UNL1        0.0350
     61 H           0.2782   -0.7356    3.6872 H       1  UNL1        0.0572
     62 H          -1.9354   -0.7789    4.4999 H       1  UNL1        0.0572
     63 H          -2.6085   -0.0318    1.5165 H       1  UNL1        0.0350
     64 H          -3.5003   -1.2610    2.5062 H       1  UNL1        0.0350
     65 H          -3.1483    1.8008    3.1230 H       1  UNL1        0.0572
     66 H          -5.3866    1.6625    3.8184 H       1  UNL1        0.0569
     67 H          -5.2127   -1.4216    3.2143 H       1  UNL1        0.0307
     68 H          -6.1790   -0.6156    4.4378 H       1  UNL1        0.0307
     69 H          -7.5195   -1.2475    2.5940 H       1  UNL1        0.0268
     70 H          -7.5807    0.5122    2.8592 H       1  UNL1        0.0268
     71 H          -5.8469    0.8731    1.0563 H       1  UNL1        0.0265
     72 H          -5.9705   -0.8707    0.6946 H       1  UNL1        0.0265
     73 H          -8.2195    1.1299    0.4710 H       1  UNL1        0.0265
     74 H          -7.2064    0.4246   -0.8500 H       1  UNL1        0.0265
     75 H          -7.8358   -1.8448   -0.2443 H       1  UNL1        0.0266
     76 H          -8.8086   -1.3084    1.1269 H       1  UNL1        0.0266
     77 H         -10.5280   -0.3387   -0.1533 H       1  UNL1        0.0291
     78 H         -10.2863   -2.0445   -0.5555 H       1  UNL1        0.0291
     79 H          -9.3790   -1.5157   -2.7670 H       1  UNL1        0.0608
     80 H         -11.7600   -0.3818   -1.7417 H       1  UNL1        0.2098
     81 H         -10.5498    1.2973   -2.1110 H       1  UNL1        0.0481
     82 H          -9.8174   -0.0302   -4.7286 H       1  UNL1        0.0245
     83 H         -11.4509    0.2844   -4.0661 H       1  UNL1        0.0245
     84 H         -10.3633    1.7028   -4.4380 H       1  UNL1        0.0245
     85 H          -8.4860    2.1482   -2.1349 H       1  UNL1        0.1185
     86 H          -8.1368    1.3484   -3.6467 H       1  UNL1        0.1185
@<TRIPOS>BOND
     1     1     2    1
     2     2     3    1
     3     2     4    1
     4     4     5    1
     5     4     6    1
     6     6     7    1
     7     7     8    2
     8     8     9    1
     9     9    10    1
    10    10    11    2
    11    11    12    1
    12    12    13    1
    13    13    14    2
    14    14    15    1
    15    15    16    1
    16    16    17    2
    17    17    18    1
    18    18    19    1
    19    19    20    2
    20    20    21    1
    21    21    22    1
    22    22    23    2
    23    23    24    1
    24    24    25    1
    25    25    26    1
    26    26    27    1
    27    27    28    1
    28    28    29    1
    29    29    30    1
    30    30    31    1
    31    30    32    1
    32    32    33    1
    33    32    34    1
    34     1    35    1
    35     1    36    1
    36     1    37    1
    37     2    38    1
    38     3    39    1
    39     3    40    1
    40     4    41    1
    41     5    42    1
    42     6    43    1
    43     6    44    1
    44     7    45    1
    45     8    46    1
    46     9    47    1
    47     9    48    1
    48    10    49    1
    49    11    50    1
    50    12    51    1
    51    12    52    1
    52    13    53    1
    53    14    54    1
    54    15    55    1
    55    15    56    1
    56    16    57    1
    57    17    58    1
    58    18    59    1
    59    18    60    1
    60    19    61    1
    61    20    62    1
    62    21    63    1
    63    21    64    1
    64    22    65    1
    65    23    66    1
    66    24    67    1
    67    24    68    1
    68    25    69    1
    69    25    70    1
    70    26    71    1
    71    26    72    1
    72    27    73    1
    73    27    74    1
    74    28    75    1
    75    28    76    1
    76    29    77    1
    77    29    78    1
    78    30    79    1
    79    31    80    1
    80    32    81    1
    81    33    82    1
    82    33    83    1
    83    33    84    1
    84    34    85    1
    85    34    86    1
@<TRIPOS>MOLECULE
50333195
 41 42 0 0 0
SMALL
GASTEIGER

@<TRIPOS>ATOM
      1 C          -3.5765    1.6943   -0.3423 C.3     1  UNL1       -0.0586
      2 C          -3.7603    0.6592    0.7621 C.3     1  UNL1       -0.0198
      3 C          -2.9643    1.0328    1.9345 C.3     1  UNL1       -0.0586
      4 C          -3.7138   -0.7112    0.2581 C.ar    1  UNL1       -0.0236
      5 C          -4.8624   -1.4708    0.1724 C.ar    1  UNL1       -0.0566
      6 C          -4.8713   -2.7870   -0.2688 C.ar    1  UNL1       -0.0614
      7 C          -3.6833   -3.3775   -0.6431 C.ar    1  UNL1       -0.0600
      8 C          -2.5129   -2.6370   -0.5679 C.ar    1  UNL1       -0.0402
      9 C          -2.5199   -1.3497   -0.1345 C.ar    1  UNL1        0.0371
     10 N          -1.3756   -0.5621   -0.0489 N.am    1  UNL1       -0.2817
     11 C          -0.0550   -1.0016   -0.2888 C.2     1  UNL1        0.2411
     12 O           0.2502   -2.1678   -0.6093 O.2     1  UNL1       -0.2705
     13 C           1.0770   -0.0520   -0.1642 C.2     1  UNL1        0.0010
     14 C           2.3235   -0.3994   -0.3739 C.2     1  UNL1       -0.0495
     15 C           3.4846    0.4719   -0.2717 C.ar    1  UNL1       -0.0185
     16 C           3.3907    1.7966    0.0675 C.ar    1  UNL1       -0.0542
     17 C           4.5412    2.5948    0.1525 C.ar    1  UNL1       -0.0548
     18 C           5.7710    2.0533   -0.1038 C.ar    1  UNL1        0.0156
     19 C           5.8935    0.7169   -0.4487 C.ar    1  UNL1        0.2737
     20 N           7.1914    0.2066   -0.7040 N.pl3   1  UNL1        0.0796
     21 O           8.2081    0.9127   -0.6287 O.2     1  UNL1        0.0414
     22 O           7.3427   -1.1096   -1.0467 O.co2   1  UNL1       -0.5760
     23 C           4.7547   -0.0207   -0.5199 C.ar    1  UNL1        0.0227
     24 H          -2.7901    2.4275   -0.0811 H       1  UNL1        0.0235
     25 H          -4.5261    2.1592   -0.6676 H       1  UNL1        0.0235
     26 H          -3.2357    1.1045   -1.2441 H       1  UNL1        0.0235
     27 H          -4.8514    0.8352    1.0650 H       1  UNL1        0.0344
     28 H          -3.6356    1.3186    2.7736 H       1  UNL1        0.0235
     29 H          -2.3349    1.9648    1.8028 H       1  UNL1        0.0235
     30 H          -2.3573    0.2030    2.3777 H       1  UNL1        0.0235
     31 H          -5.8220   -1.0276    0.4633 H       1  UNL1        0.0621
     32 H          -5.7891   -3.3466   -0.3213 H       1  UNL1        0.0618
     33 H          -3.6752   -4.4025   -0.9885 H       1  UNL1        0.0618
     34 H          -1.6242   -3.1516   -0.8767 H       1  UNL1        0.0636
     35 H          -1.4383    0.4496    0.1960 H       1  UNL1        0.1551
     36 H           0.8876    0.9762    0.1106 H       1  UNL1        0.0670
     37 H           2.4535   -1.4630   -0.6516 H       1  UNL1        0.0625
     38 H           2.4244    2.2331    0.2717 H       1  UNL1        0.0623
     39 H           4.4481    3.6363    0.4211 H       1  UNL1        0.0620
     40 H           6.6768    2.6640   -0.0413 H       1  UNL1        0.0685
     41 H           4.8561   -1.0733   -0.7920 H       1  UNL1        0.0691
@<TRIPOS>UNITY_ATOM_ATTR
20 1
charge 1
22 1
charge -1
@<TRIPOS>BOND
     1     1     2    1
     2     2     3    1
     3     2     4    1
     4     4     5   ar
     5     5     6   ar
     6     6     7   ar
     7     7     8   ar
     8     8     9   ar
     9     9    10    1
    10    10    11   am
    11    11    12    2
    12    11    13    1
    13    13    14    2
    14    14    15    1
    15    15    16   ar
    16    16    17   ar
    17    17    18   ar
    18    18    19   ar
    19    19    20    1
    20    20    21    2
    21    20    22    1
    22    19    23   ar
    23     9     4   ar
    24    23    15   ar
    25     1    24    1
    26     1    25    1
    27     1    26    1
    28     2    27    1
    29     3    28    1
    30     3    29    1
    31     3    30    1
    32     5    31    1
    33     6    32    1
    34     7    33    1
    35     8    34    1
    36    10    35    1
    37    13    36    1
    38    14    37    1
    39    16    38    1
    40    17    39    1
    41    18    40    1
    42    23    41    1
@<TRIPOS>MOLECULE
122178106
 57 60 0 0 0
SMALL
GASTEIGER

@<TRIPOS>ATOM
      1 C           5.8424   -3.3222    0.5605 C.3     1  UNL1        0.0788
      2 O           4.8936   -3.1646   -0.4729 O.3     1  UNL1       -0.4951
      3 C           3.7380   -2.4467   -0.2763 C.ar    1  UNL1        0.1201
      4 C           2.7842   -2.2603   -1.2378 C.ar    1  UNL1       -0.0196
      5 C           1.6409   -1.5349   -1.0017 C.ar    1  UNL1       -0.0534
      6 C           1.4423   -0.9701    0.2539 C.ar    1  UNL1       -0.0270
      7 C           0.2035   -0.1782    0.5162 C.3     1  UNL1        0.0490
      8 C           0.4580    0.7259    1.6834 C.3     1  UNL1       -0.0422
      9 N          -0.1261    0.6053   -0.6876 N.am    1  UNL1       -0.2864
     10 C           0.8024    1.5001   -1.3246 C.3     1  UNL1        0.0406
     11 C           0.5232    2.9446   -1.1633 C.ar    1  UNL1       -0.0293
     12 C          -0.1384    3.6480   -2.1840 C.ar    1  UNL1       -0.0570
     13 C          -0.4560    4.9816   -2.1002 C.ar    1  UNL1       -0.0607
     14 C          -0.1067    5.6586   -0.9561 C.ar    1  UNL1       -0.0478
     15 C           0.5455    5.0421    0.0913 C.ar    1  UNL1        0.0591
     16 C           0.8798    5.8050    1.2831 C.2     1  UNL1        0.3368
     17 O           0.5836    7.0180    1.3835 O.2     1  UNL1       -0.2451
     18 O           1.5336    5.1729    2.3168 O.3     1  UNL1       -0.4771
     19 C           0.8406    3.6920   -0.0531 C.ar    1  UNL1       -0.0431
     20 C          -1.4130    0.4148   -1.2891 C.2     1  UNL1        0.2489
     21 O          -1.7514    1.0356   -2.3222 O.2     1  UNL1       -0.2699
     22 C          -2.4070   -0.5022   -0.7477 C.ar    1  UNL1        0.0556
     23 C          -3.5976    0.0103   -0.2473 C.ar    1  UNL1        0.0404
     24 N          -4.5587   -0.7742    0.2575 N.ar    1  UNL1       -0.2542
     25 C          -4.4119   -2.1121    0.3041 C.ar    1  UNL1        0.0710
     26 C          -5.3964   -2.9064    0.8194 C.ar    1  UNL1       -0.0357
     27 C          -5.2252   -4.2670    0.8559 C.ar    1  UNL1       -0.0597
     28 C          -4.0726   -4.8390    0.3794 C.ar    1  UNL1       -0.0611
     29 C          -3.0958   -4.0533   -0.1322 C.ar    1  UNL1       -0.0525
     30 C          -3.2451   -2.6978   -0.1788 C.ar    1  UNL1        0.0011
     31 C          -2.2569   -1.8598   -0.7013 C.ar    1  UNL1       -0.0390
     32 C           2.3739   -1.1369    1.2388 C.ar    1  UNL1       -0.0534
     33 C           3.5020   -1.8705    0.9562 C.ar    1  UNL1       -0.0196
     34 H           6.6860   -3.9537    0.1867 H       1  UNL1        0.0660
     35 H           5.4118   -3.7198    1.4880 H       1  UNL1        0.0660
     36 H           6.2849   -2.3253    0.8196 H       1  UNL1        0.0660
     37 H           2.9521   -2.7075   -2.2219 H       1  UNL1        0.0654
     38 H           0.8786   -1.3885   -1.7826 H       1  UNL1        0.0622
     39 H          -0.6462   -0.8298    0.7748 H       1  UNL1        0.0548
     40 H          -0.2420    1.5822    1.7717 H       1  UNL1        0.0251
     41 H           0.3377    0.1575    2.6533 H       1  UNL1        0.0251
     42 H           1.5293    1.0706    1.7276 H       1  UNL1        0.0251
     43 H           1.8630    1.2679   -1.0263 H       1  UNL1        0.0514
     44 H           0.7463    1.2727   -2.4201 H       1  UNL1        0.0514
     45 H          -0.4114    3.1597   -3.1038 H       1  UNL1        0.0621
     46 H          -0.9612    5.5017   -2.8917 H       1  UNL1        0.0618
     47 H          -0.3592    6.7245   -0.8873 H       1  UNL1        0.0626
     48 H           1.3091    5.3353    3.2947 H       1  UNL1        0.2954
     49 H           1.3589    3.2333    0.7683 H       1  UNL1        0.0629
     50 H          -3.7236    1.1056   -0.2824 H       1  UNL1        0.0837
     51 H          -6.3001   -2.4777    1.1952 H       1  UNL1        0.0639
     52 H          -6.0205   -4.8935    1.2708 H       1  UNL1        0.0618
     53 H          -3.9785   -5.9276    0.4306 H       1  UNL1        0.0618
     54 H          -2.1978   -4.4836   -0.5051 H       1  UNL1        0.0624
     55 H          -1.3646   -2.3304   -1.0676 H       1  UNL1        0.0632
     56 H           2.2832   -0.7289    2.2460 H       1  UNL1        0.0622
     57 H           4.2356   -2.0030    1.7371 H       1  UNL1        0.0654
@<TRIPOS>BOND
     1     1     2    1
     2     2     3    1
     3     3     4   ar
     4     4     5   ar
     5     5     6   ar
     6     6     7    1
     7     7     8    1
     8     7     9    1
     9     9    10    1
    10    10    11    1
    11    11    12   ar
    12    12    13   ar
    13    13    14   ar
    14    14    15   ar
    15    15    16    1
    16    16    17    2
    17    16    18    1
    18    15    19   ar
    19     9    20   am
    20    20    21    2
    21    20    22    1
    22    22    23   ar
    23    23    24   ar
    24    24    25   ar
    25    25    26   ar
    26    26    27   ar
    27    27    28   ar
    28    28    29   ar
    29    29    30   ar
    30    30    31   ar
    31     6    32   ar
    32    32    33   ar
    33    33     3   ar
    34    19    11   ar
    35    31    22   ar
    36    30    25   ar
    37     1    34    1
    38     1    35    1
    39     1    36    1
    40     4    37    1
    41     5    38    1
    42     7    39    1
    43     8    40    1
    44     8    41    1
    45     8    42    1
    46    10    43    1
    47    10    44    1
    48    12    45    1
    49    13    46    1
    50    14    47    1
    51    18    48    1
    52    19    49    1
    53    23    50    1
    54    26    51    1
    55    27    52    1
    56    28    53    1
    57    29    54    1
    58    31    55    1
    59    32    56    1
    60    33    57    1
@<TRIPOS>MOLECULE
50342278
 59 62 0 0 0
SMALL
GASTEIGER

@<TRIPOS>ATOM
      1 C          -3.7103    1.0519    1.2570 C.3     1  UNL1       -0.0422
      2 C          -2.6302    1.9153    0.6305 C.3     1  UNL1        0.0490
      3 C          -3.2607    2.9087   -0.2280 C.ar    1  UNL1       -0.0271
      4 C          -3.8108    2.6984   -1.4596 C.ar    1  UNL1       -0.0541
      5 C          -4.3968    3.6832   -2.2341 C.ar    1  UNL1       -0.0261
      6 C          -4.4518    4.9597   -1.7789 C.ar    1  UNL1        0.1234
      7 F          -5.0198    5.9399   -2.5180 F       1  UNL1       -0.2055
      8 C          -3.9157    5.2379   -0.5422 C.ar    1  UNL1       -0.0261
      9 C          -3.3405    4.2483    0.2070 C.ar    1  UNL1       -0.0541
     10 N          -1.5418    1.1486    0.1256 N.am    1  UNL1       -0.2864
     11 C          -1.5650    0.1774   -0.9443 C.3     1  UNL1        0.0406
     12 C          -2.2047   -1.0991   -0.6212 C.ar    1  UNL1       -0.0293
     13 C          -3.5406   -1.3062   -0.9323 C.ar    1  UNL1       -0.0570
     14 C          -4.2018   -2.4875   -0.6499 C.ar    1  UNL1       -0.0607
     15 C          -3.5269   -3.5049   -0.0375 C.ar    1  UNL1       -0.0478
     16 C          -2.2023   -3.3304    0.2841 C.ar    1  UNL1        0.0591
     17 C          -1.4949   -4.4258    0.9374 C.2     1  UNL1        0.3368
     18 O          -2.1072   -5.5180    1.1981 O.2     1  UNL1       -0.2451
     19 O          -0.1639   -4.3754    1.3113 O.3     1  UNL1       -0.4771
     20 C          -1.5515   -2.1356   -0.0073 C.ar    1  UNL1       -0.0431
     21 C          -0.2816    1.3127    0.8312 C.2     1  UNL1        0.2474
     22 O          -0.2984    2.0918    1.8173 O.2     1  UNL1       -0.2700
     23 C           0.9428    0.6222    0.4301 C.ar    1  UNL1        0.0372
     24 C           1.5113   -0.3824    1.1732 C.ar    1  UNL1       -0.0462
     25 C           2.6897   -1.0220    0.7722 C.ar    1  UNL1       -0.0186
     26 C           3.3393   -0.6738   -0.3923 C.ar    1  UNL1        0.1285
     27 O           4.4973   -1.2610   -0.8559 O.3     1  UNL1       -0.4560
     28 C           5.7227   -1.2574   -0.2768 C.ar    1  UNL1        0.1284
     29 C           6.5918   -0.2264   -0.3989 C.ar    1  UNL1       -0.0193
     30 C           7.8357   -0.2941    0.2253 C.ar    1  UNL1       -0.0583
     31 C           8.2284   -1.3829    0.9744 C.ar    1  UNL1       -0.0615
     32 C           7.3561   -2.4301    1.1028 C.ar    1  UNL1       -0.0583
     33 C           6.1343   -2.3612    0.4887 C.ar    1  UNL1       -0.0193
     34 C           2.7709    0.3417   -1.1470 C.ar    1  UNL1       -0.0186
     35 C           1.6064    0.9750   -0.7527 C.ar    1  UNL1       -0.0462
     36 H          -4.0747    1.5794    2.1546 H       1  UNL1        0.0251
     37 H          -3.3220    0.0893    1.6004 H       1  UNL1        0.0251
     38 H          -4.5894    0.9929    0.5780 H       1  UNL1        0.0251
     39 H          -2.1963    2.4745    1.5429 H       1  UNL1        0.0548
     40 H          -3.8119    1.6934   -1.8549 H       1  UNL1        0.0622
     41 H          -4.7964    3.4171   -3.1857 H       1  UNL1        0.0646
     42 H          -3.9731    6.2561   -0.1996 H       1  UNL1        0.0646
     43 H          -2.9277    4.4764    1.1740 H       1  UNL1        0.0622
     44 H          -0.4772   -0.1139   -1.1384 H       1  UNL1        0.0514
     45 H          -1.8976    0.6334   -1.8687 H       1  UNL1        0.0514
     46 H          -4.1026   -0.5349   -1.4167 H       1  UNL1        0.0621
     47 H          -5.2461   -2.6016   -0.9145 H       1  UNL1        0.0618
     48 H          -4.0165   -4.4613    0.2053 H       1  UNL1        0.0626
     49 H           0.2175   -4.9175    2.0926 H       1  UNL1        0.2954
     50 H          -0.5200   -2.0889    0.2735 H       1  UNL1        0.0629
     51 H           1.0210   -0.6897    2.1045 H       1  UNL1        0.0626
     52 H           3.1213   -1.8073    1.3764 H       1  UNL1        0.0654
     53 H           6.3445    0.6665   -0.9780 H       1  UNL1        0.0654
     54 H           8.5208    0.5412    0.1187 H       1  UNL1        0.0619
     55 H           9.2012   -1.3919    1.4386 H       1  UNL1        0.0618
     56 H           7.6765   -3.2866    1.6984 H       1  UNL1        0.0619
     57 H           5.4638   -3.1834    0.5979 H       1  UNL1        0.0654
     58 H           3.2500    0.6434   -2.0736 H       1  UNL1        0.0654
     59 H           1.1253    1.7747   -1.3150 H       1  UNL1        0.0626
@<TRIPOS>BOND
     1     1     2    1
     2     2     3    1
     3     3     4   ar
     4     4     5   ar
     5     5     6   ar
     6     6     7    1
     7     6     8   ar
     8     8     9   ar
     9     2    10    1
    10    10    11    1
    11    11    12    1
    12    12    13   ar
    13    13    14   ar
    14    14    15   ar
    15    15    16   ar
    16    16    17    1
    17    17    18    2
    18    17    19    1
    19    16    20   ar
    20    10    21   am
    21    21    22    2
    22    21    23    1
    23    23    24   ar
    24    24    25   ar
    25    25    26   ar
    26    26    27    1
    27    27    28    1
    28    28    29   ar
    29    29    30   ar
    30    30    31   ar
    31    31    32   ar
    32    32    33   ar
    33    26    34   ar
    34    34    35   ar
    35     9     3   ar
    36    20    12   ar
    37    35    23   ar
    38    33    28   ar
    39     1    36    1
    40     1    37    1
    41     1    38    1
    42     2    39    1
    43     4    40    1
    44     5    41    1
    45     8    42    1
    46     9    43    1
    47    11    44    1
    48    11    45    1
    49    13    46    1
    50    14    47    1
    51    15    48    1
    52    19    49    1
    53    20    50    1
    54    24    51    1
    55    25    52    1
    56    29    53    1
    57    30    54    1
    58    31    55    1
    59    32    56    1
    60    33    57    1
    61    34    58    1
    62    35    59    1
@<TRIPOS>MOLECULE
51345601
 54 57 0 0 0
SMALL
GASTEIGER

@<TRIPOS>ATOM
      1 C          -3.4674   -0.9234    1.4462 C.3     1  UNL1       -0.0626
      2 C          -2.9536   -2.1558    0.8033 C.3     1  UNL1       -0.0450
      3 C          -2.9346   -3.3017    1.8094 C.3     1  UNL1       -0.0626
      4 C          -1.6958   -2.0463    0.0448 C.3     1  UNL1       -0.0297
      5 C          -1.7301   -1.1324   -1.1260 C.3     1  UNL1        0.0491
      6 N          -0.4544   -1.1259   -1.7814 N.3     1  UNL1       -0.2973
      7 C           0.4020   -0.0509   -1.6661 C.3     1  UNL1        0.0893
      8 C           1.8178   -0.5226   -1.6598 C.2     1  UNL1        0.2307
      9 O           2.0585   -1.7465   -1.7436 O.2     1  UNL1       -0.2741
     10 N           2.9106    0.3753   -1.5617 N.am    1  UNL1       -0.3099
     11 C           4.2968    0.0299   -1.5457 C.3     1  UNL1        0.0369
     12 C           4.6740   -0.4833   -0.2234 C.ar    1  UNL1       -0.0302
     13 C           4.6582   -1.8104    0.0709 C.ar    1  UNL1       -0.0544
     14 C           5.0190   -2.2333    1.3414 C.ar    1  UNL1       -0.0261
     15 C           5.3925   -1.3242    2.3055 C.ar    1  UNL1        0.1234
     16 F           5.7353   -1.7994    3.5305 F       1  UNL1       -0.2055
     17 C           5.4000    0.0063    1.9827 C.ar    1  UNL1       -0.0261
     18 C           5.0490    0.4538    0.7376 C.ar    1  UNL1       -0.0544
     19 C           0.1490    0.8048   -0.4152 C.3     1  UNL1       -0.0014
     20 C          -1.2552    1.2387   -0.5381 C.ar    1  UNL1       -0.0156
     21 C          -2.1594    0.2473   -0.8916 C.ar    1  UNL1        0.0374
     22 N          -3.3505    0.9016   -0.9558 N.ar    1  UNL1       -0.3565
     23 C          -3.2220    2.1908   -0.6695 C.ar    1  UNL1        0.0470
     24 C          -4.0995    3.2469   -0.5980 C.ar    1  UNL1       -0.0378
     25 C          -3.7141    4.5287   -0.2695 C.ar    1  UNL1       -0.0598
     26 C          -2.3656    4.7287   -0.0037 C.ar    1  UNL1       -0.0611
     27 C          -1.4547    3.7263   -0.0589 C.ar    1  UNL1       -0.0523
     28 C          -1.8834    2.4322   -0.3970 C.ar    1  UNL1        0.0032
     29 H          -3.7122   -1.1482    2.5324 H       1  UNL1        0.0232
     30 H          -2.7317   -0.1123    1.5001 H       1  UNL1        0.0232
     31 H          -4.4305   -0.5620    1.0443 H       1  UNL1        0.0232
     32 H          -3.7512   -2.4754    0.0504 H       1  UNL1        0.0296
     33 H          -2.3448   -4.1460    1.4528 H       1  UNL1        0.0232
     34 H          -2.5327   -2.9554    2.7876 H       1  UNL1        0.0232
     35 H          -3.9835   -3.5920    1.9985 H       1  UNL1        0.0232
     36 H          -1.3880   -3.0833   -0.2883 H       1  UNL1        0.0286
     37 H          -0.8831   -1.6836    0.7604 H       1  UNL1        0.0286
     38 H          -2.4385   -1.5780   -1.8933 H       1  UNL1        0.0525
     39 H          -0.1264   -2.0187   -2.1415 H       1  UNL1        0.1233
     40 H           0.2819    0.7034   -2.5038 H       1  UNL1        0.0560
     41 H           2.6254    1.3968   -1.4959 H       1  UNL1        0.1491
     42 H           4.5556   -0.7444   -2.3113 H       1  UNL1        0.0512
     43 H           4.9071    0.9348   -1.7955 H       1  UNL1        0.0512
     44 H           4.3855   -2.5678   -0.6296 H       1  UNL1        0.0622
     45 H           5.0003   -3.2880    1.5557 H       1  UNL1        0.0646
     46 H           5.6928    0.7272    2.7365 H       1  UNL1        0.0646
     47 H           5.0588    1.5091    0.4944 H       1  UNL1        0.0622
     48 H           0.4026    0.2871    0.5121 H       1  UNL1        0.0334
     49 H           0.8598    1.6691   -0.5098 H       1  UNL1        0.0334
     50 H          -4.2586    0.4491   -1.2006 H       1  UNL1        0.1656
     51 H          -5.1562    3.0928   -0.8058 H       1  UNL1        0.0638
     52 H          -4.4307    5.3299   -0.2235 H       1  UNL1        0.0618
     53 H          -2.0393    5.7298    0.2572 H       1  UNL1        0.0618
     54 H          -0.3849    3.8710    0.1494 H       1  UNL1        0.0624
@<TRIPOS>BOND
     1     1     2    1
     2     2     3    1
     3     2     4    1
     4     4     5    1
     5     5     6    1
     6     6     7    1
     7     7     8    1
     8     8     9    2
     9     8    10   am
    10    10    11    1
    11    11    12    1
    12    12    13   ar
    13    13    14   ar
    14    14    15   ar
    15    15    16    1
    16    15    17   ar
    17    17    18   ar
    18     7    19    1
    19    19    20    1
    20    20    21   ar
    21    21    22   ar
    22    22    23   ar
    23    23    24   ar
    24    24    25   ar
    25    25    26   ar
    26    26    27   ar
    27    27    28   ar
    28    21     5    1
    29    28    23   ar
    30    18    12   ar
    31    28    20   ar
    32     1    29    1
    33     1    30    1
    34     1    31    1
    35     2    32    1
    36     3    33    1
    37     3    34    1
    38     3    35    1
    39     4    36    1
    40     4    37    1
    41     5    38    1
    42     6    39    1
    43     7    40    1
    44    10    41    1
    45    11    42    1
    46    11    43    1
    47    13    44    1
    48    14    45    1
    49    17    46    1
    50    18    47    1
    51    19    48    1
    52    19    49    1
    53    22    50    1
    54    24    51    1
    55    25    52    1
    56    26    53    1
    57    27    54    1
@<TRIPOS>MOLECULE
171347350
 32 33 0 0 0
SMALL
GASTEIGER

@<TRIPOS>ATOM
      1 C           2.6929   -1.5536   -1.0036 C.3     1  UNL1       -0.0493
      2 C           2.5905   -0.1863   -1.6289 C.3     1  UNL1        0.0119
      3 N           3.0849    0.8703   -0.8171 N.am    1  UNL1       -0.3003
      4 C           4.5051    1.2273   -1.0120 C.3     1  UNL1        0.0035
      5 C           2.3565    1.5664    0.1173 C.2     1  UNL1        0.2582
      6 O           2.9645    2.5149    0.7431 O.2     1  UNL1       -0.2692
      7 C           0.9794    1.2903    0.4231 C.ar    1  UNL1        0.1372
      8 S          -0.0370   -0.0146   -0.2055 S.2     1  UNL1       -0.0588
      9 C          -1.5094    0.4388    0.7498 C.ar    1  UNL1        0.1128
     10 C          -2.7534   -0.3723    0.6063 C.ar    1  UNL1        0.0073
     11 C          -2.8273   -1.4601   -0.2301 C.ar    1  UNL1       -0.0520
     12 C          -4.0066   -2.2032   -0.3456 C.ar    1  UNL1       -0.0611
     13 C          -5.1026   -1.8169    0.4045 C.ar    1  UNL1       -0.0617
     14 C          -5.0093   -0.7168    1.2429 C.ar    1  UNL1       -0.0611
     15 C          -3.8172    0.0105    1.3406 C.ar    1  UNL1       -0.0520
     16 N          -1.1043    1.3963    1.3486 N.ar    1  UNL1       -0.2047
     17 C           0.0793    1.9175    1.2858 C.ar    1  UNL1        0.2327
     18 O           0.4923    3.0482    2.0192 O.3     1  UNL1       -0.4915
     19 H           2.5231   -1.5464    0.0940 H       1  UNL1        0.0245
     20 H           3.6538   -2.0673   -1.2646 H       1  UNL1        0.0245
     21 H           1.8963   -2.1845   -1.4480 H       1  UNL1        0.0245
     22 H           1.5698   -0.0239   -1.9826 H       1  UNL1        0.0462
     23 H           3.2433   -0.2766   -2.5698 H       1  UNL1        0.0462
     24 H           5.1643    0.5436   -0.4523 H       1  UNL1        0.0429
     25 H           4.7745    1.1341   -2.0875 H       1  UNL1        0.0429
     26 H           4.6926    2.2535   -0.6551 H       1  UNL1        0.0429
     27 H          -1.9474   -1.7303   -0.8004 H       1  UNL1        0.0624
     28 H          -4.0452   -3.0646   -1.0158 H       1  UNL1        0.0618
     29 H          -6.0025   -2.4058    0.2990 H       1  UNL1        0.0618
     30 H          -5.8867   -0.4372    1.8197 H       1  UNL1        0.0618
     31 H          -3.7453    0.8654    1.9923 H       1  UNL1        0.0624
     32 H           0.5314    2.9832    3.0338 H       1  UNL1        0.2938
@<TRIPOS>BOND
     1     1     2    1
     2     2     3    1
     3     3     4    1
     4     3     5   am
     5     5     6    2
     6     5     7    1
     7     7     8   ar
     8     8     9   ar
     9     9    10    1
    10    10    11   ar
    11    11    12   ar
    12    12    13   ar
    13    13    14   ar
    14    14    15   ar
    15     9    16   ar
    16    16    17   ar
    17    17    18    1
    18    17     7   ar
    19    15    10   ar
    20     1    19    1
    21     1    20    1
    22     1    21    1
    23     2    22    1
    24     2    23    1
    25     4    24    1
    26     4    25    1
    27     4    26    1
    28    11    27    1
    29    12    28    1
    30    13    29    1
    31    14    30    1
    32    15    31    1
    33    18    32    1
@<TRIPOS>MOLECULE
90645470
 32 34 0 0 0
SMALL
GASTEIGER

@<TRIPOS>ATOM
      1 F           0.7875    3.9893    1.2599 F       1  UNL1       -0.1328
      2 C           0.7464    2.9839    0.2779 C.3     1  UNL1        0.5753
      3 F           1.4933    3.3640   -0.8094 F       1  UNL1       -0.1328
      4 F          -0.6077    3.0050   -0.1046 F       1  UNL1       -0.1328
      5 O           1.1420    1.7816    0.8360 O.3     1  UNL1       -0.4051
      6 C           1.3068    0.5467    0.3356 C.ar    1  UNL1        0.1397
      7 C           2.5885    0.2363   -0.1716 C.ar    1  UNL1        0.0064
      8 C           2.8479   -0.9891   -0.6868 C.ar    1  UNL1        0.0692
      9 N           3.9806   -1.5296   -1.2290 N.ar    1  UNL1       -0.2768
     10 N           3.6896   -2.7550   -1.5732 N.ar    1  UNL1       -0.1812
     11 C           2.4003   -3.0543   -1.2802 C.ar    1  UNL1        0.0569
     12 C           1.8332   -1.9382   -0.7092 C.ar    1  UNL1        0.0203
     13 C           0.5791   -1.6314   -0.2129 C.ar    1  UNL1       -0.0398
     14 C           0.3036   -0.3892    0.3117 C.ar    1  UNL1        0.0254
     15 C          -1.0509   -0.1187    0.7619 C.ar    1  UNL1       -0.0027
     16 C          -1.3650   -0.0969    2.1203 C.ar    1  UNL1       -0.0534
     17 C          -2.6347    0.2079    2.5667 C.ar    1  UNL1       -0.0612
     18 C          -3.5914    0.4926    1.6192 C.ar    1  UNL1       -0.0612
     19 C          -3.2739    0.4682    0.2792 C.ar    1  UNL1       -0.0495
     20 C          -2.0056    0.1636   -0.1860 C.ar    1  UNL1        0.0626
     21 C          -1.7726    0.1097   -1.6287 C.3     1  UNL1        0.4180
     22 F          -0.7778    0.9166   -2.1105 F       1  UNL1       -0.1659
     23 F          -1.5784   -1.1622   -2.1329 F       1  UNL1       -0.1659
     24 F          -2.9300    0.5493   -2.3079 F       1  UNL1       -0.1659
     25 H           3.3830    0.9710   -0.1569 H       1  UNL1        0.0676
     26 H           4.8946   -1.0461   -1.3406 H       1  UNL1        0.1889
     27 H           1.9300   -3.9988   -1.4694 H       1  UNL1        0.0854
     28 H          -0.1603   -2.4181   -0.2558 H       1  UNL1        0.0632
     29 H          -0.5813   -0.3273    2.8320 H       1  UNL1        0.0624
     30 H          -2.8937    0.2288    3.6170 H       1  UNL1        0.0618
     31 H          -4.5910    0.7338    1.9601 H       1  UNL1        0.0618
     32 H          -4.0922    0.7067   -0.4118 H       1  UNL1        0.0623
@<TRIPOS>BOND
     1     1     2    1
     2     2     3    1
     3     2     4    1
     4     2     5    1
     5     5     6    1
     6     6     7   ar
     7     7     8   ar
     8     8     9   ar
     9     9    10   ar
    10    10    11   ar
    11    11    12   ar
    12    12    13   ar
    13    13    14   ar
    14    14    15    1
    15    15    16   ar
    16    16    17   ar
    17    17    18   ar
    18    18    19   ar
    19    19    20   ar
    20    20    21    1
    21    21    22    1
    22    21    23    1
    23    21    24    1
    24    14     6   ar
    25    20    15   ar
    26    12     8   ar
    27     7    25    1
    28     9    26    1
    29    11    27    1
    30    13    28    1
    31    16    29    1
    32    17    30    1
    33    18    31    1
    34    19    32    1
@<TRIPOS>MOLECULE
51345621
 52 57 0 0 0
SMALL
GASTEIGER

@<TRIPOS>ATOM
      1 O           1.7871   -0.1207   -2.8190 O.2     1  UNL1       -0.2731
      2 C           1.4329   -0.5006   -1.6664 C.2     1  UNL1        0.2442
      3 C           0.0381   -0.3750   -1.1655 C.3     1  UNL1        0.1093
      4 C          -0.3631    1.0682   -1.0265 C.3     1  UNL1        0.0020
      5 C          -1.4919    1.1990   -0.0721 C.ar    1  UNL1       -0.0147
      6 C          -1.8577    0.2202    0.8224 C.ar    1  UNL1        0.0456
      7 N          -2.9107    0.6889    1.5144 N.ar    1  UNL1       -0.3560
      8 C          -3.2238    1.9280    1.0901 C.ar    1  UNL1        0.0470
      9 C          -4.2268    2.8191    1.4945 C.ar    1  UNL1       -0.0378
     10 C          -4.3052    4.0246    0.8753 C.ar    1  UNL1       -0.0598
     11 C          -3.4265    4.3823   -0.1312 C.ar    1  UNL1       -0.0611
     12 C          -2.4325    3.5208   -0.5443 C.ar    1  UNL1       -0.0523
     13 C          -2.3468    2.2805    0.0881 C.ar    1  UNL1        0.0032
     14 C          -1.1484   -1.0827    0.9219 C.3     1  UNL1        0.0938
     15 C          -1.9625   -2.1890    0.3500 C.ar    1  UNL1       -0.0210
     16 C          -1.3655   -3.3870    0.0178 C.ar    1  UNL1       -0.0537
     17 C          -2.0775   -4.4433   -0.5155 C.ar    1  UNL1       -0.0261
     18 C          -3.4283   -4.3349   -0.7374 C.ar    1  UNL1        0.1234
     19 F          -4.1913   -5.3261   -1.2564 F       1  UNL1       -0.2055
     20 C          -4.0553   -3.1347   -0.4103 C.ar    1  UNL1       -0.0261
     21 C          -3.3194   -2.0882    0.1241 C.ar    1  UNL1       -0.0537
     22 N           0.0698   -0.9738    0.1389 N.am    1  UNL1       -0.2608
     23 C           1.3785   -1.3756    0.4405 C.2     1  UNL1        0.3128
     24 O           1.7616   -1.9148    1.5306 O.2     1  UNL1       -0.2519
     25 N           2.2362   -1.0933   -0.6589 N.am    1  UNL1       -0.2199
     26 C           3.6389   -1.3693   -0.7032 C.3     1  UNL1        0.0489
     27 C           4.4649   -0.2417   -0.1997 C.ar    1  UNL1       -0.0296
     28 C           4.8201   -0.1296    1.1344 C.ar    1  UNL1       -0.0571
     29 C           5.5892    0.9255    1.5876 C.ar    1  UNL1       -0.0615
     30 C           6.0385    1.9139    0.7369 C.ar    1  UNL1       -0.0617
     31 C           5.6857    1.8036   -0.5920 C.ar    1  UNL1       -0.0615
     32 C           4.9177    0.7503   -1.0453 C.ar    1  UNL1       -0.0571
     33 H          -0.6800   -0.8801   -1.8461 H       1  UNL1        0.0601
     34 H          -0.6240    1.5091   -2.0308 H       1  UNL1        0.0337
     35 H           0.5204    1.6758   -0.6873 H       1  UNL1        0.0337
     36 H          -3.4396    0.1830    2.2869 H       1  UNL1        0.1657
     37 H          -4.8926    2.4922    2.2892 H       1  UNL1        0.0638
     38 H          -5.0688    4.7365    1.1640 H       1  UNL1        0.0618
     39 H          -3.5017    5.3623   -0.6240 H       1  UNL1        0.0618
     40 H          -1.7297    3.7577   -1.3211 H       1  UNL1        0.0624
     41 H          -0.9546   -1.3263    1.9803 H       1  UNL1        0.0616
     42 H          -0.2882   -3.5339    0.1721 H       1  UNL1        0.0622
     43 H          -1.5951   -5.3837   -0.7736 H       1  UNL1        0.0646
     44 H          -5.1199   -3.0021   -0.5675 H       1  UNL1        0.0646
     45 H          -3.8344   -1.1908    0.3597 H       1  UNL1        0.0622
     46 H           3.9486   -1.6030   -1.7584 H       1  UNL1        0.0519
     47 H           3.9000   -2.3058   -0.1286 H       1  UNL1        0.0519
     48 H           4.4753   -0.8992    1.8208 H       1  UNL1        0.0621
     49 H           5.8627    1.0040    2.6386 H       1  UNL1        0.0618
     50 H           6.6480    2.7478    1.1024 H       1  UNL1        0.0618
     51 H           6.0154    2.5578   -1.3031 H       1  UNL1        0.0618
     52 H           4.6325    0.6543   -2.0988 H       1  UNL1        0.0621
@<TRIPOS>BOND
     1     1     2    2
     2     2     3    1
     3     3     4    1
     4     4     5    1
     5     5     6   ar
     6     6     7   ar
     7     7     8   ar
     8     8     9   ar
     9     9    10   ar
    10    10    11   ar
    11    11    12   ar
    12    12    13   ar
    13     6    14    1
    14    14    15    1
    15    15    16   ar
    16    16    17   ar
    17    17    18   ar
    18    18    19    1
    19    18    20   ar
    20    20    21   ar
    21    14    22    1
    22    22    23   am
    23    23    24    2
    24    23    25   am
    25    25    26    1
    26    26    27    1
    27    27    28   ar
    28    28    29   ar
    29    29    30   ar
    30    30    31   ar
    31    31    32   ar
    32    25     2   am
    33    32    27   ar
    34    22     3    1
    35    13     5   ar
    36    21    15   ar
    37    13     8   ar
    38     3    33    1
    39     4    34    1
    40     4    35    1
    41     7    36    1
    42     9    37    1
    43    10    38    1
    44    11    39    1
    45    12    40    1
    46    14    41    1
    47    16    42    1
    48    17    43    1
    49    20    44    1
    50    21    45    1
    51    26    46    1
    52    26    47    1
    53    28    48    1
    54    29    49    1
    55    30    50    1
    56    31    51    1
    57    32    52    1
@<TRIPOS>MOLECULE
51027986
 48 50 0 0 0
SMALL
GASTEIGER

@<TRIPOS>ATOM
      1 C          -4.9059    2.1621    3.1131 C.3     1  UNL1       -0.0397
      2 C          -4.5163    1.2550    2.0204 C.ar    1  UNL1       -0.0497
      3 C          -5.3911    0.3320    1.5472 C.ar    1  UNL1       -0.0585
      4 C          -4.9794   -0.5048    0.5189 C.ar    1  UNL1       -0.0574
      5 C          -3.6903   -0.3903   -0.0087 C.ar    1  UNL1       -0.0327
      6 C          -3.2480   -1.2634   -1.1153 C.3     1  UNL1       -0.0208
      7 C          -3.7758   -0.8044   -2.4636 C.3     1  UNL1       -0.0586
      8 C          -3.6860   -2.7012   -0.9560 C.3     1  UNL1       -0.0586
      9 C          -2.8099    0.5430    0.4746 C.ar    1  UNL1        0.0407
     10 C          -1.4355    0.6256   -0.0802 C.2     1  UNL1        0.2485
     11 O          -1.2370    1.0262   -1.2362 O.2     1  UNL1       -0.2698
     12 N          -0.3387    0.2357    0.7273 N.am    1  UNL1       -0.2815
     13 C           1.0023    0.2570    0.3214 C.ar    1  UNL1        0.0337
     14 C           1.9356   -0.1976    1.2771 C.ar    1  UNL1       -0.0399
     15 C           3.2891   -0.2490    1.0318 C.ar    1  UNL1       -0.0523
     16 C           3.7970    0.1537   -0.1945 C.ar    1  UNL1       -0.0178
     17 C           5.2327    0.1098   -0.4677 C.ar    1  UNL1       -0.0179
     18 C           6.1036    0.3288    0.5512 C.ar    1  UNL1       -0.0540
     19 C           7.4775    0.2902    0.3462 C.ar    1  UNL1       -0.0612
     20 C           7.9341    0.0162   -0.9497 C.ar    1  UNL1       -0.0617
     21 C           7.0160   -0.1992   -1.9513 C.ar    1  UNL1       -0.0612
     22 C           5.6449   -0.1672   -1.7821 C.ar    1  UNL1       -0.0540
     23 C           2.8848    0.5925   -1.1152 C.ar    1  UNL1       -0.0523
     24 C           1.5226    0.6450   -0.8673 C.ar    1  UNL1       -0.0399
     25 C          -3.2231    1.3676    1.4897 C.ar    1  UNL1       -0.0464
     26 H          -5.9947    2.1361    3.3315 H       1  UNL1        0.0278
     27 H          -4.3423    1.9011    4.0592 H       1  UNL1        0.0278
     28 H          -4.6517    3.2139    2.8989 H       1  UNL1        0.0278
     29 H          -6.4110    0.1993    1.9291 H       1  UNL1        0.0620
     30 H          -5.6741   -1.2409    0.1390 H       1  UNL1        0.0621
     31 H          -2.1140   -1.3251   -1.1483 H       1  UNL1        0.0344
     32 H          -4.7337   -0.2538   -2.2809 H       1  UNL1        0.0235
     33 H          -4.0063   -1.6938   -3.1283 H       1  UNL1        0.0235
     34 H          -3.0996   -0.1731   -3.0280 H       1  UNL1        0.0235
     35 H          -2.9874   -3.2838   -0.3205 H       1  UNL1        0.0235
     36 H          -4.7444   -2.8330   -0.7094 H       1  UNL1        0.0235
     37 H          -3.5585   -3.1658   -1.9815 H       1  UNL1        0.0235
     38 H          -0.6008   -0.0932    1.7235 H       1  UNL1        0.1551
     39 H           1.5891   -0.5247    2.2484 H       1  UNL1        0.0636
     40 H           3.9882   -0.6007    1.7741 H       1  UNL1        0.0624
     41 H           5.7096    0.5407    1.5583 H       1  UNL1        0.0624
     42 H           8.1517    0.4742    1.1737 H       1  UNL1        0.0618
     43 H           9.0041   -0.0209   -1.1332 H       1  UNL1        0.0618
     44 H           7.3515   -0.4199   -2.9724 H       1  UNL1        0.0618
     45 H           4.9213   -0.3313   -2.5474 H       1  UNL1        0.0624
     46 H           3.2759    0.9141   -2.0833 H       1  UNL1        0.0624
     47 H           0.8780    1.0011   -1.6292 H       1  UNL1        0.0636
     48 H          -2.5539    2.1164    1.8937 H       1  UNL1        0.0628
@<TRIPOS>BOND
     1     1     2    1
     2     2     3   ar
     3     3     4   ar
     4     4     5   ar
     5     5     6    1
     6     6     7    1
     7     6     8    1
     8     5     9   ar
     9     9    10    1
    10    10    11    2
    11    10    12   am
    12    12    13    1
    13    13    14   ar
    14    14    15   ar
    15    15    16   ar
    16    16    17    1
    17    17    18   ar
    18    18    19   ar
    19    19    20   ar
    20    20    21   ar
    21    21    22   ar
    22    16    23   ar
    23    23    24   ar
    24     9    25   ar
    25    25     2   ar
    26    24    13   ar
    27    22    17   ar
    28     1    26    1
    29     1    27    1
    30     1    28    1
    31     3    29    1
    32     4    30    1
    33     6    31    1
    34     7    32    1
    35     7    33    1
    36     7    34    1
    37     8    35    1
    38     8    36    1
    39     8    37    1
    40    12    38    1
    41    14    39    1
    42    15    40    1
    43    18    41    1
    44    19    42    1
    45    20    43    1
    46    21    44    1
    47    22    45    1
    48    23    46    1
    49    24    47    1
    50    25    48    1
@<TRIPOS>MOLECULE
50333172
 36 37 0 0 0
SMALL
GASTEIGER

@<TRIPOS>ATOM
      1 O           0.5081    0.8647    0.8634 O.2     1  UNL1       -0.2705
      2 C           0.3573   -0.2557    0.3182 C.2     1  UNL1        0.2411
      3 C          -0.9989   -0.6887   -0.1011 C.2     1  UNL1        0.0010
      4 C          -2.0044    0.1254    0.1159 C.2     1  UNL1       -0.0495
      5 C          -3.3827   -0.1857   -0.2502 C.ar    1  UNL1       -0.0185
      6 C          -3.7646   -1.3587   -0.8570 C.ar    1  UNL1       -0.0542
      7 C          -5.1056   -1.5670   -1.1693 C.ar    1  UNL1       -0.0548
      8 C          -6.0847   -0.6369   -0.8942 C.ar    1  UNL1        0.0156
      9 C          -5.7181    0.5501   -0.2833 C.ar    1  UNL1        0.2737
     10 N          -6.6888    1.5277    0.0152 N.pl3   1  UNL1        0.0796
     11 O          -7.8726    1.3291   -0.2672 O.2     1  UNL1        0.0414
     12 O          -6.3164    2.6907    0.6158 O.co2   1  UNL1       -0.5760
     13 C          -4.3973    0.7441    0.0191 C.ar    1  UNL1        0.0227
     14 N           1.4931   -1.0707    0.1217 N.am    1  UNL1       -0.2820
     15 C           2.8095   -0.6927    0.5090 C.ar    1  UNL1        0.0340
     16 C           3.3173   -0.9869    1.7586 C.ar    1  UNL1       -0.0405
     17 C           4.5878   -0.6294    2.1507 C.ar    1  UNL1       -0.0597
     18 C           5.3988    0.0420    1.2930 C.ar    1  UNL1       -0.0563
     19 C           4.9234    0.3540    0.0318 C.ar    1  UNL1       -0.0204
     20 C           5.8044    1.0840   -0.9015 C.3     1  UNL1        0.0693
     21 O           5.6185    2.4426   -0.7373 O.3     1  UNL1       -0.3904
     22 C           3.6434   -0.0101   -0.3532 C.ar    1  UNL1       -0.0351
     23 H          -1.1670   -1.6264   -0.5641 H       1  UNL1        0.0670
     24 H          -1.8094    1.0961    0.5987 H       1  UNL1        0.0625
     25 H          -3.0126   -2.0966   -1.0793 H       1  UNL1        0.0623
     26 H          -5.3609   -2.5032   -1.6457 H       1  UNL1        0.0620
     27 H          -7.1133   -0.8624   -1.1643 H       1  UNL1        0.0685
     28 H          -4.1090    1.6796    0.5004 H       1  UNL1        0.0691
     29 H           1.3218   -2.0102   -0.3427 H       1  UNL1        0.1551
     30 H           2.6682   -1.5225    2.4406 H       1  UNL1        0.0636
     31 H           4.8806   -0.9116    3.1526 H       1  UNL1        0.0618
     32 H           6.3908    0.3161    1.6117 H       1  UNL1        0.0621
     33 H           5.5896    0.7422   -1.9325 H       1  UNL1        0.0607
     34 H           6.8745    0.8705   -0.6514 H       1  UNL1        0.0607
     35 H           5.4089    2.9118   -1.5960 H       1  UNL1        0.2098
     36 H           3.3103    0.2444   -1.3267 H       1  UNL1        0.0639
@<TRIPOS>UNITY_ATOM_ATTR
10 1
charge 1
12 1
charge -1
@<TRIPOS>BOND
     1     1     2    2
     2     2     3    1
     3     3     4    2
     4     4     5    1
     5     5     6   ar
     6     6     7   ar
     7     7     8   ar
     8     8     9   ar
     9     9    10    1
    10    10    11    2
    11    10    12    1
    12     9    13   ar
    13     2    14   am
    14    14    15    1
    15    15    16   ar
    16    16    17   ar
    17    17    18   ar
    18    18    19   ar
    19    19    20    1
    20    20    21    1
    21    19    22   ar
    22    13     5   ar
    23    22    15   ar
    24     3    23    1
    25     4    24    1
    26     6    25    1
    27     7    26    1
    28     8    27    1
    29    13    28    1
    30    14    29    1
    31    16    30    1
    32    17    31    1
    33    18    32    1
    34    20    33    1
    35    20    34    1
    36    21    35    1
    37    22    36    1
@<TRIPOS>MOLECULE
50333164
 41 44 0 0 0
SMALL
GASTEIGER

@<TRIPOS>ATOM
      1 C           3.7379    1.7091    1.7930 C.3     1  UNL1        0.0789
      2 O           2.9381    0.9337    0.9454 O.3     1  UNL1       -0.4932
      3 C           3.4183    0.2062   -0.1258 C.ar    1  UNL1        0.1414
      4 C           4.8075    0.2619   -0.3635 C.ar    1  UNL1       -0.0181
      5 C           5.3493   -0.4371   -1.4108 C.ar    1  UNL1       -0.0582
      6 C           4.5496   -1.1917   -2.2318 C.ar    1  UNL1       -0.0598
      7 C           3.1758   -1.2180   -1.9593 C.ar    1  UNL1       -0.0366
      8 C           2.5889   -0.5378   -0.9251 C.ar    1  UNL1        0.0797
      9 N           1.1622   -0.5927   -0.6268 N.am    1  UNL1       -0.2477
     10 C           0.6153    0.3803    0.2616 C.3     1  UNL1        0.0445
     11 C          -0.8613    0.3892    0.3192 C.2     1  UNL1       -0.0298
     12 C          -1.6647   -0.4540   -0.2714 C.2     1  UNL1        0.0429
     13 N          -1.1410   -1.4948   -1.0895 N.am    1  UNL1       -0.2685
     14 C           0.2968   -1.5272   -1.2308 C.2     1  UNL1        0.3111
     15 O           0.7832   -2.4612   -1.9398 O.2     1  UNL1       -0.2519
     16 C          -3.1338   -0.5018   -0.0276 C.ar    1  UNL1       -0.0006
     17 C          -3.9534   -1.3370   -0.7763 C.ar    1  UNL1       -0.0526
     18 C          -5.3315   -1.2630   -0.5900 C.ar    1  UNL1       -0.0611
     19 C          -5.8463   -0.3696    0.3258 C.ar    1  UNL1       -0.0615
     20 C          -5.0261    0.4580    1.0693 C.ar    1  UNL1       -0.0579
     21 C          -3.6481    0.3767    0.8786 C.ar    1  UNL1       -0.0382
     22 C          -2.7226    1.1608    1.7253 C.3     1  UNL1       -0.0233
     23 C          -1.5009    1.5760    1.0209 C.3     1  UNL1       -0.0242
     24 H           3.9968    2.6975    1.3211 H       1  UNL1        0.0660
     25 H           3.1554    1.9238    2.7304 H       1  UNL1        0.0660
     26 H           4.6590    1.1938    2.1371 H       1  UNL1        0.0660
     27 H           5.4256    0.8500    0.2768 H       1  UNL1        0.0655
     28 H           6.4108   -0.4317   -1.6411 H       1  UNL1        0.0619
     29 H           4.9613   -1.7498   -3.0633 H       1  UNL1        0.0618
     30 H           2.5710   -1.7987   -2.6329 H       1  UNL1        0.0637
     31 H           0.9620    1.3995   -0.0135 H       1  UNL1        0.0516
     32 H           0.9674    0.1920    1.3352 H       1  UNL1        0.0516
     33 H          -1.7015   -2.1960   -1.5632 H       1  UNL1        0.1564
     34 H          -3.5580   -2.0226   -1.4836 H       1  UNL1        0.0624
     35 H          -6.0337   -1.8766   -1.1317 H       1  UNL1        0.0618
     36 H          -6.9206   -0.3076    0.4732 H       1  UNL1        0.0618
     37 H          -5.3699    1.1737    1.7973 H       1  UNL1        0.0620
     38 H          -2.3853    0.4600    2.5606 H       1  UNL1        0.0316
     39 H          -3.2780    2.0191    2.1917 H       1  UNL1        0.0316
     40 H          -0.7594    2.0442    1.7033 H       1  UNL1        0.0314
     41 H          -1.6963    2.3633    0.2319 H       1  UNL1        0.0314
@<TRIPOS>BOND
     1     1     2    1
     2     2     3    1
     3     3     4   ar
     4     4     5   ar
     5     5     6   ar
     6     6     7   ar
     7     7     8   ar
     8     8     9    1
     9     9    10    1
    10    10    11    1
    11    11    12    2
    12    12    13    1
    13    13    14   am
    14    14    15    2
    15    12    16    1
    16    16    17   ar
    17    17    18   ar
    18    18    19   ar
    19    19    20   ar
    20    20    21   ar
    21    21    22    1
    22    22    23    1
    23     8     3   ar
    24    14     9   am
    25    21    16   ar
    26    23    11    1
    27     1    24    1
    28     1    25    1
    29     1    26    1
    30     4    27    1
    31     5    28    1
    32     6    29    1
    33     7    30    1
    34    10    31    1
    35    10    32    1
    36    13    33    1
    37    17    34    1
    38    18    35    1
    39    19    36    1
    40    20    37    1
    41    22    38    1
    42    22    39    1
    43    23    40    1
    44    23    41    1
@<TRIPOS>MOLECULE
51345630
 49 54 0 0 0
SMALL
GASTEIGER

@<TRIPOS>ATOM
      1 O           1.9778   -0.7088   -2.3986 O.2     1  UNL1       -0.2727
      2 C           1.6610   -0.4820   -1.1812 C.2     1  UNL1        0.2483
      3 C           0.2676   -0.2277   -0.7755 C.3     1  UNL1        0.1096
      4 C          -0.1886    1.1972   -0.9807 C.3     1  UNL1        0.0020
      5 C          -1.4203    1.4090   -0.1458 C.ar    1  UNL1       -0.0147
      6 C          -1.8043    0.5834    0.8786 C.ar    1  UNL1        0.0456
      7 N          -2.9388    1.0894    1.3800 N.ar    1  UNL1       -0.3560
      8 C          -3.2861    2.2108    0.7049 C.ar    1  UNL1        0.0470
      9 C          -4.3687    3.0859    0.8470 C.ar    1  UNL1       -0.0378
     10 C          -4.4989    4.1800    0.0164 C.ar    1  UNL1       -0.0598
     11 C          -3.5284    4.3670   -0.9440 C.ar    1  UNL1       -0.0611
     12 C          -2.4513    3.5387   -1.1218 C.ar    1  UNL1       -0.0523
     13 C          -2.3472    2.4495   -0.2737 C.ar    1  UNL1        0.0032
     14 C          -1.0246   -0.6085    1.2587 C.3     1  UNL1        0.0938
     15 C          -1.5903   -1.8454    0.6573 C.ar    1  UNL1       -0.0210
     16 C          -0.7565   -2.9340    0.5683 C.ar    1  UNL1       -0.0537
     17 C          -1.2176   -4.1121    0.0212 C.ar    1  UNL1       -0.0261
     18 C          -2.5111   -4.2519   -0.4532 C.ar    1  UNL1        0.1234
     19 F          -2.9727   -5.4103   -0.9939 F       1  UNL1       -0.2055
     20 C          -3.3041   -3.1282   -0.3389 C.ar    1  UNL1       -0.0261
     21 C          -2.8724   -1.9417    0.2012 C.ar    1  UNL1       -0.0537
     22 N           0.2970   -0.4301    0.6574 N.am    1  UNL1       -0.2605
     23 C           1.6403   -0.3911    1.1196 C.2     1  UNL1        0.3170
     24 O           1.9422   -0.3392    2.3314 O.2     1  UNL1       -0.2516
     25 N           2.4756   -0.4223   -0.0215 N.am    1  UNL1       -0.1925
     26 C           3.9303   -0.3825   -0.0318 C.ar    1  UNL1        0.0456
     27 C           4.6411   -0.4071    1.1473 C.ar    1  UNL1       -0.0371
     28 C           6.0351   -0.3567    1.1351 C.ar    1  UNL1       -0.0247
     29 C           6.7537   -0.2815   -0.0320 C.ar    1  UNL1        0.1235
     30 F           8.1165   -0.2323   -0.0447 F       1  UNL1       -0.2055
     31 C           6.0220   -0.2584   -1.1945 C.ar    1  UNL1       -0.0247
     32 C           4.6249   -0.3076   -1.2093 C.ar    1  UNL1       -0.0371
     33 H          -0.4473   -0.9532   -1.2569 H       1  UNL1        0.0601
     34 H           0.6287    1.8508   -0.5982 H       1  UNL1        0.0337
     35 H          -0.4002    1.3698   -2.0554 H       1  UNL1        0.0337
     36 H          -3.5192    0.7232    2.1724 H       1  UNL1        0.1657
     37 H          -5.1016    2.8901    1.6191 H       1  UNL1        0.0638
     38 H          -5.3474    4.8427    0.1477 H       1  UNL1        0.0618
     39 H          -3.6254    5.2187   -1.5943 H       1  UNL1        0.0618
     40 H          -1.6863    3.6907   -1.8827 H       1  UNL1        0.0624
     41 H          -0.9607   -0.7710    2.3453 H       1  UNL1        0.0616
     42 H           0.2748   -2.9083    0.9179 H       1  UNL1        0.0622
     43 H          -0.5845   -5.0076   -0.0694 H       1  UNL1        0.0646
     44 H          -4.3312   -3.2039   -0.7039 H       1  UNL1        0.0646
     45 H          -3.5184   -1.0649    0.2814 H       1  UNL1        0.0622
     46 H           4.1182   -0.4692    2.0992 H       1  UNL1        0.0637
     47 H           6.5783   -0.3776    2.0892 H       1  UNL1        0.0647
     48 H           6.5186   -0.2002   -2.1496 H       1  UNL1        0.0647
     49 H           4.1003   -0.2814   -2.1450 H       1  UNL1        0.0637
@<TRIPOS>BOND
     1     1     2    2
     2     2     3    1
     3     3     4    1
     4     4     5    1
     5     5     6   ar
     6     6     7   ar
     7     7     8   ar
     8     8     9   ar
     9     9    10   ar
    10    10    11   ar
    11    11    12   ar
    12    12    13   ar
    13     6    14    1
    14    14    15    1
    15    15    16   ar
    16    16    17   ar
    17    17    18   ar
    18    18    19    1
    19    18    20   ar
    20    20    21   ar
    21    14    22    1
    22    22    23   am
    23    23    24    2
    24    23    25   am
    25    25    26    1
    26    26    27   ar
    27    27    28   ar
    28    28    29   ar
    29    29    30    1
    30    29    31   ar
    31    31    32   ar
    32    25     2   am
    33    32    26   ar
    34    22     3    1
    35    13     5   ar
    36    21    15   ar
    37    13     8   ar
    38     3    33    1
    39     4    34    1
    40     4    35    1
    41     7    36    1
    42     9    37    1
    43    10    38    1
    44    11    39    1
    45    12    40    1
    46    14    41    1
    47    16    42    1
    48    17    43    1
    49    20    44    1
    50    21    45    1
    51    27    46    1
    52    28    47    1
    53    31    48    1
    54    32    49    1
@<TRIPOS>MOLECULE
72545748
 55 57 0 0 0
SMALL
GASTEIGER

@<TRIPOS>ATOM
      1 C          -1.6682    0.8878   -1.7731 C.3     1  UNL1       -0.0493
      2 C          -1.6489   -0.6012   -1.8936 C.3     1  UNL1        0.0124
      3 N          -1.2636   -1.2860   -0.6680 N.am    1  UNL1       -0.2946
      4 C           0.1129   -1.5740   -0.4153 C.2     1  UNL1        0.2504
      5 O           0.4349   -2.1603    0.6356 O.2     1  UNL1       -0.2698
      6 C           1.1154   -1.1630   -1.4167 C.ar    1  UNL1        0.0785
      7 C           1.4591   -2.0199   -2.4216 C.ar    1  UNL1       -0.0461
      8 C           2.4004   -1.6425   -3.3670 C.ar    1  UNL1       -0.0608
      9 C           2.9833   -0.3993   -3.2830 C.ar    1  UNL1       -0.0583
     10 C           2.6449    0.4753   -2.2734 C.ar    1  UNL1       -0.0192
     11 C           1.7127    0.0995   -1.3382 C.ar    1  UNL1        0.1331
     12 O           1.3249    0.8844   -0.3259 O.3     1  UNL1       -0.4866
     13 C           1.5491    2.1018    0.2031 C.3     1  UNL1        0.1147
     14 C           2.9022    2.4382    0.6843 C.ar    1  UNL1       -0.0103
     15 C           3.2863    2.0661    1.9804 C.ar    1  UNL1       -0.0541
     16 C           4.5271    2.3712    2.4904 C.ar    1  UNL1       -0.0440
     17 C           5.4596    3.0627    1.7454 C.ar    1  UNL1        0.0518
     18 C           6.7591    3.3866    2.2713 C.1     1  UNL1        0.0992
     19 N           7.8207    3.6302    2.7006 N.1     1  UNL1       -0.1909
     20 C           5.0872    3.4344    0.4621 C.ar    1  UNL1       -0.0440
     21 C           3.8391    3.1249   -0.0434 C.ar    1  UNL1       -0.0541
     22 C          -2.2705   -1.6817    0.2982 C.3     1  UNL1        0.0277
     23 C          -3.2880   -2.6309   -0.2813 C.3     1  UNL1       -0.0342
     24 C          -4.1979   -3.0987    0.8229 C.3     1  UNL1       -0.0500
     25 C          -4.8286   -1.9677    1.5929 C.3     1  UNL1       -0.0376
     26 C          -3.7501   -1.0482    2.1101 C.3     1  UNL1        0.0065
     27 N          -4.3115    0.0183    2.8805 N.3     1  UNL1       -0.3272
     28 C          -3.0220   -0.4956    0.8758 C.3     1  UNL1       -0.0190
     29 H          -1.3498    1.2848   -0.8020 H       1  UNL1        0.0245
     30 H          -0.9748    1.3544   -2.5292 H       1  UNL1        0.0245
     31 H          -2.6686    1.3427   -2.0161 H       1  UNL1        0.0245
     32 H          -0.8741   -0.9060   -2.6541 H       1  UNL1        0.0462
     33 H          -2.6548   -0.9608   -2.2103 H       1  UNL1        0.0462
     34 H           0.9907   -3.0158   -2.4869 H       1  UNL1        0.0626
     35 H           2.6815   -2.3094   -4.1659 H       1  UNL1        0.0618
     36 H           3.7205   -0.0819   -4.0084 H       1  UNL1        0.0619
     37 H           3.1303    1.4583   -2.2471 H       1  UNL1        0.0654
     38 H           1.1916    2.8801   -0.5525 H       1  UNL1        0.0748
     39 H           0.7881    2.2613    1.0395 H       1  UNL1        0.0748
     40 H           2.5577    1.5278    2.5567 H       1  UNL1        0.0622
     41 H           4.8280    2.0845    3.4950 H       1  UNL1        0.0630
     42 H           5.8250    3.9757   -0.1126 H       1  UNL1        0.0630
     43 H           3.5857    3.4428   -1.0550 H       1  UNL1        0.0622
     44 H          -1.7658   -2.1956    1.1588 H       1  UNL1        0.0501
     45 H          -2.7784   -3.5490   -0.6757 H       1  UNL1        0.0283
     46 H          -3.8840   -2.1220   -1.0754 H       1  UNL1        0.0283
     47 H          -3.6216   -3.7382    1.5084 H       1  UNL1        0.0266
     48 H          -5.0226   -3.7018    0.3609 H       1  UNL1        0.0266
     49 H          -5.4464   -1.3829    0.8949 H       1  UNL1        0.0280
     50 H          -5.4164   -2.4233    2.4137 H       1  UNL1        0.0280
     51 H          -2.9804   -1.6229    2.6967 H       1  UNL1        0.0459
     52 H          -3.6314    0.3852    3.5868 H       1  UNL1        0.1185
     53 H          -5.2004   -0.3000    3.3293 H       1  UNL1        0.1185
     54 H          -3.8263   -0.2442    0.1545 H       1  UNL1        0.0298
     55 H          -2.3730    0.3435    1.1435 H       1  UNL1        0.0298
@<TRIPOS>BOND
     1     1     2    1
     2     2     3    1
     3     3     4   am
     4     4     5    2
     5     4     6    1
     6     6     7   ar
     7     7     8   ar
     8     8     9   ar
     9     9    10   ar
    10    10    11   ar
    11    11    12    1
    12    12    13    1
    13    13    14    1
    14    14    15   ar
    15    15    16   ar
    16    16    17   ar
    17    17    18    1
    18    18    19    3
    19    17    20   ar
    20    20    21   ar
    21     3    22    1
    22    22    23    1
    23    23    24    1
    24    24    25    1
    25    25    26    1
    26    26    27    1
    27    26    28    1
    28    11     6   ar
    29    21    14   ar
    30    28    22    1
    31     1    29    1
    32     1    30    1
    33     1    31    1
    34     2    32    1
    35     2    33    1
    36     7    34    1
    37     8    35    1
    38     9    36    1
    39    10    37    1
    40    13    38    1
    41    13    39    1
    42    15    40    1
    43    16    41    1
    44    20    42    1
    45    21    43    1
    46    22    44    1
    47    23    45    1
    48    23    46    1
    49    24    47    1
    50    24    48    1
    51    25    49    1
    52    25    50    1
    53    26    51    1
    54    27    52    1
    55    27    53    1
    56    28    54    1
    57    28    55    1
@<TRIPOS>MOLECULE
50934287
 35 37 0 0 0
SMALL
GASTEIGER

@<TRIPOS>ATOM
      1 C          -2.5797   -1.9259   -1.2671 C.3     1  UNL1       -0.0422
      2 C          -1.8968   -1.2039   -0.1318 C.3     1  UNL1        0.0506
      3 C          -2.8798   -0.3002    0.6037 C.ar    1  UNL1       -0.0170
      4 C          -3.5912   -0.6094    1.6931 C.ar    1  UNL1       -0.0495
      5 C          -4.4354    0.3244    2.2355 C.ar    1  UNL1       -0.0237
      6 S          -4.1419    1.7154    1.0571 S.2     1  UNL1       -0.1012
      7 C          -3.0043    0.9337    0.0512 C.ar    1  UNL1       -0.0038
      8 C          -2.3388    1.4879   -1.1195 C.3     1  UNL1       -0.0052
      9 C          -1.2627    0.5797   -1.6770 C.3     1  UNL1        0.0212
     10 N          -0.8553   -0.3150   -0.6467 N.am    1  UNL1       -0.2782
     11 C           0.4359   -0.4092   -0.0913 C.2     1  UNL1        0.3069
     12 O           0.5945   -1.2869    0.8240 O.2     1  UNL1       -0.2523
     13 N           1.5238    0.3842   -0.4766 N.am    1  UNL1       -0.2693
     14 C           2.8290    0.3131    0.0603 C.ar    1  UNL1        0.0348
     15 C           3.2767   -0.5243    1.0384 C.ar    1  UNL1       -0.0404
     16 C           4.5979   -0.5126    1.5000 C.ar    1  UNL1       -0.0600
     17 C           5.5231    0.3546    0.9846 C.ar    1  UNL1       -0.0616
     18 C           5.0902    1.2068   -0.0027 C.ar    1  UNL1       -0.0600
     19 C           3.7967    1.1947   -0.4540 C.ar    1  UNL1       -0.0404
     20 H          -3.0901   -2.8320   -0.9223 H       1  UNL1        0.0251
     21 H          -3.2848   -1.2729   -1.8194 H       1  UNL1        0.0251
     22 H          -1.7970   -2.2369   -1.9900 H       1  UNL1        0.0251
     23 H          -1.4608   -1.9596    0.5383 H       1  UNL1        0.0548
     24 H          -3.5511   -1.6091    2.2184 H       1  UNL1        0.0626
     25 H          -5.1125    0.3715    3.0755 H       1  UNL1        0.0693
     26 H          -1.8527    2.4835   -0.9372 H       1  UNL1        0.0334
     27 H          -3.0938    1.6611   -1.9111 H       1  UNL1        0.0334
     28 H          -0.4092    1.1317   -2.0785 H       1  UNL1        0.0468
     29 H          -1.7008    0.0405   -2.5609 H       1  UNL1        0.0468
     30 H           1.3137    1.0931   -1.2415 H       1  UNL1        0.1564
     31 H           2.6121   -1.2276    1.4871 H       1  UNL1        0.0636
     32 H           4.8905   -1.2059    2.2818 H       1  UNL1        0.0618
     33 H           6.5455    0.3721    1.3336 H       1  UNL1        0.0618
     34 H           5.8304    1.9011   -0.4155 H       1  UNL1        0.0618
     35 H           3.4788    1.8824   -1.2395 H       1  UNL1        0.0636
@<TRIPOS>BOND
     1     1     2    1
     2     2     3    1
     3     3     4   ar
     4     4     5   ar
     5     5     6   ar
     6     6     7   ar
     7     7     8    1
     8     8     9    1
     9     9    10    1
    10    10    11   am
    11    11    12    2
    12    11    13   am
    13    13    14    1
    14    14    15   ar
    15    15    16   ar
    16    16    17   ar
    17    17    18   ar
    18    18    19   ar
    19    10     2    1
    20    19    14   ar
    21     7     3   ar
    22     1    20    1
    23     1    21    1
    24     1    22    1
    25     2    23    1
    26     4    24    1
    27     5    25    1
    28     8    26    1
    29     8    27    1
    30     9    28    1
    31     9    29    1
    32    13    30    1
    33    15    31    1
    34    16    32    1
    35    17    33    1
    36    18    34    1
    37    19    35    1
@<TRIPOS>MOLECULE
CHEMBL3577897
 54 57 0 0 0
SMALL
GASTEIGER

@<TRIPOS>ATOM
      1 O           3.4918   -3.8277    2.2242 O.2     1  UNL1       -0.2451
      2 C           4.0448   -3.7395    1.0914 C.2     1  UNL1        0.3368
      3 O           4.8289   -4.7734    0.6806 O.3     1  UNL1       -0.4771
      4 C           3.8134   -2.5345    0.2825 C.ar    1  UNL1        0.0591
      5 C           4.3979   -2.4215   -0.9447 C.ar    1  UNL1       -0.0478
      6 C           4.1622   -1.2853   -1.6791 C.ar    1  UNL1       -0.0607
      7 C           3.3406   -0.2540   -1.1962 C.ar    1  UNL1       -0.0570
      8 C           2.7310   -0.3423    0.0428 C.ar    1  UNL1       -0.0293
      9 C           1.8597    0.6828    0.6389 C.3     1  UNL1        0.0407
     10 N           0.4493    0.6296    0.3159 N.am    1  UNL1       -0.2839
     11 C          -0.3608   -0.3345    0.9209 C.2     1  UNL1        0.2489
     12 O           0.1681   -1.1475    1.8008 O.2     1  UNL1       -0.2699
     13 C          -1.7675   -0.6272    0.7471 C.ar    1  UNL1        0.0556
     14 C          -2.7693    0.1966    1.1676 C.ar    1  UNL1        0.0404
     15 N          -4.0452   -0.1930    1.0185 N.ar    1  UNL1       -0.2542
     16 C          -4.4201   -1.3708    0.4680 C.ar    1  UNL1        0.0710
     17 C          -5.7486   -1.7279    0.3510 C.ar    1  UNL1       -0.0357
     18 C          -6.1379   -2.9200   -0.1899 C.ar    1  UNL1       -0.0597
     19 C          -5.1641   -3.7828   -0.6277 C.ar    1  UNL1       -0.0611
     20 C          -3.8301   -3.4440   -0.5193 C.ar    1  UNL1       -0.0525
     21 C          -3.4365   -2.2311    0.0309 C.ar    1  UNL1        0.0011
     22 C          -2.1187   -1.8619    0.1686 C.ar    1  UNL1       -0.0390
     23 C          -0.1834    1.6347   -0.5257 C.3     1  UNL1        0.0749
     24 C           0.1719    1.4073   -1.9708 C.3     1  UNL1        0.0669
     25 O          -0.5196    2.4372   -2.6858 O.3     1  UNL1       -0.3928
     26 C           0.1841    3.0082   -0.0549 C.ar    1  UNL1       -0.0248
     27 C           1.1772    3.7500   -0.6489 C.ar    1  UNL1       -0.0567
     28 C           1.5092    5.0398   -0.2027 C.ar    1  UNL1       -0.0614
     29 C           0.8441    5.6096    0.8551 C.ar    1  UNL1       -0.0617
     30 C          -0.1513    4.8713    1.4549 C.ar    1  UNL1       -0.0614
     31 C          -0.4801    3.5830    1.0076 C.ar    1  UNL1       -0.0567
     32 C           3.0163   -1.5219    0.7373 C.ar    1  UNL1       -0.0431
     33 H           5.4316   -5.3190    1.3067 H       1  UNL1        0.2954
     34 H           5.0323   -3.2265   -1.3144 H       1  UNL1        0.0626
     35 H           4.6291   -1.1985   -2.6544 H       1  UNL1        0.0618
     36 H           3.2122    0.6242   -1.7972 H       1  UNL1        0.0621
     37 H           2.2603    1.7242    0.4331 H       1  UNL1        0.0514
     38 H           1.9190    0.5711    1.7398 H       1  UNL1        0.0514
     39 H          -2.5565    1.1747    1.6327 H       1  UNL1        0.0837
     40 H          -6.4947   -1.0385    0.6988 H       1  UNL1        0.0639
     41 H          -7.1957   -3.2239   -0.2846 H       1  UNL1        0.0618
     42 H          -5.4990   -4.7337   -1.0590 H       1  UNL1        0.0618
     43 H          -3.0728   -4.1161   -0.8611 H       1  UNL1        0.0624
     44 H          -1.3663   -2.5538   -0.1857 H       1  UNL1        0.0632
     45 H          -1.2838    1.4570   -0.4753 H       1  UNL1        0.0573
     46 H           1.2356    1.5143   -2.1675 H       1  UNL1        0.0579
     47 H          -0.2671    0.4305   -2.2650 H       1  UNL1        0.0579
     48 H          -0.8069    3.1632   -2.0793 H       1  UNL1        0.2095
     49 H           1.7210    3.3245   -1.4872 H       1  UNL1        0.0621
     50 H           2.2945    5.6078   -0.6851 H       1  UNL1        0.0618
     51 H           1.0878    6.6162    1.2145 H       1  UNL1        0.0618
     52 H          -0.6978    5.2926    2.2885 H       1  UNL1        0.0618
     53 H          -1.2521    3.0606    1.5034 H       1  UNL1        0.0621
     54 H           2.6122   -1.6602    1.7398 H       1  UNL1        0.0629
@<TRIPOS>BOND
     1     1     2    2
     2     2     3    1
     3     2     4    1
     4     4     5   ar
     5     5     6   ar
     6     6     7   ar
     7     7     8   ar
     8     8     9    1
     9     9    10    1
    10    10    11   am
    11    11    12    2
    12    11    13    1
    13    13    14   ar
    14    14    15   ar
    15    15    16   ar
    16    16    17   ar
    17    17    18   ar
    18    18    19   ar
    19    19    20   ar
    20    20    21   ar
    21    21    22   ar
    22    10    23    1
    23    23    24    1
    24    24    25    1
    25    23    26    1
    26    26    27   ar
    27    27    28   ar
    28    28    29   ar
    29    29    30   ar
    30    30    31   ar
    31     8    32   ar
    32    32     4   ar
    33    22    13   ar
    34    31    26   ar
    35    21    16   ar
    36     3    33    1
    37     5    34    1
    38     6    35    1
    39     7    36    1
    40     9    37    1
    41     9    38    1
    42    14    39    1
    43    17    40    1
    44    18    41    1
    45    19    42    1
    46    20    43    1
    47    22    44    1
    48    23    45    1
    49    24    46    1
    50    24    47    1
    51    25    48    1
    52    27    49    1
    53    28    50    1
    54    29    51    1
    55    30    52    1
    56    31    53    1
    57    32    54    1
@<TRIPOS>MOLECULE
51129922
 55 57 0 0 0
SMALL
GASTEIGER

@<TRIPOS>ATOM
      1 C           8.1000   -0.0435   -0.6459 C.3     1  UNL1       -0.0653
      2 C           6.6122   -0.1909   -0.9055 C.3     1  UNL1       -0.0559
      3 C           5.8668    1.0439   -0.4518 C.3     1  UNL1       -0.0530
      4 C           4.3849    0.9368   -0.6956 C.3     1  UNL1       -0.0491
      5 C           3.7501   -0.2147    0.0224 C.3     1  UNL1       -0.0275
      6 C           2.2780   -0.2524   -0.2685 C.ar    1  UNL1       -0.0404
      7 C           1.7587   -0.9565   -1.3341 C.ar    1  UNL1       -0.0165
      8 C           0.4095   -0.9956   -1.6068 C.ar    1  UNL1        0.1238
      9 O          -0.0754   -1.7317   -2.7114 O.3     1  UNL1       -0.5064
     10 C          -0.4573   -0.3144   -0.7973 C.ar    1  UNL1        0.0361
     11 C          -0.0010    0.4046    0.2789 C.ar    1  UNL1        0.1282
     12 C           1.3588    0.4153    0.5138 C.ar    1  UNL1       -0.0162
     13 O          -0.8824    1.1102    1.1202 O.3     1  UNL1       -0.4853
     14 C          -2.2746    0.9342    1.0799 C.3     1  UNL1        0.1115
     15 C          -2.8853    2.1681    0.4925 C.3     1  UNL1       -0.0246
     16 C          -2.8010    0.7142    2.4955 C.3     1  UNL1       -0.0119
     17 C          -4.2636    0.4224    2.4894 C.3     1  UNL1       -0.0372
     18 C          -4.6970   -0.6484    1.5653 C.3     1  UNL1        0.0169
     19 I          -6.8029   -0.4721    1.2432 I       1  UNL1       -0.0811
     20 C          -4.0281   -0.6634    0.2313 C.3     1  UNL1       -0.0165
     21 C          -4.7845    0.1417   -0.8074 C.3     1  UNL1       -0.0585
     22 C          -4.0845   -2.1199   -0.2619 C.3     1  UNL1       -0.0585
     23 C          -2.5783   -0.3146    0.3140 C.3     1  UNL1        0.0089
     24 C          -1.9298   -0.3235   -1.0476 C.3     1  UNL1       -0.0138
     25 H           8.4968   -1.0189   -0.3406 H       1  UNL1        0.0230
     26 H           8.6309    0.2767   -1.5657 H       1  UNL1        0.0230
     27 H           8.2443    0.6717    0.1944 H       1  UNL1        0.0230
     28 H           6.3836   -0.3763   -1.9741 H       1  UNL1        0.0263
     29 H           6.2407   -1.0515   -0.2952 H       1  UNL1        0.0263
     30 H           6.0981    1.3302    0.5727 H       1  UNL1        0.0265
     31 H           6.2313    1.8821   -1.1074 H       1  UNL1        0.0265
     32 H           3.9258    1.8690   -0.2982 H       1  UNL1        0.0268
     33 H           4.1815    0.8139   -1.7784 H       1  UNL1        0.0268
     34 H           3.8191    0.0081    1.1234 H       1  UNL1        0.0313
     35 H           4.2207   -1.1862   -0.1407 H       1  UNL1        0.0313
     36 H           2.4615   -1.4865   -1.9595 H       1  UNL1        0.0657
     37 H          -0.7049   -2.4862   -2.4591 H       1  UNL1        0.2921
     38 H           1.7395    0.9769    1.3583 H       1  UNL1        0.0657
     39 H          -2.2326    3.0364    0.8045 H       1  UNL1        0.0268
     40 H          -3.8863    2.4181    0.9340 H       1  UNL1        0.0268
     41 H          -2.9206    2.1981   -0.5963 H       1  UNL1        0.0268
     42 H          -2.2681   -0.1461    2.9090 H       1  UNL1        0.0304
     43 H          -2.6325    1.6462    3.0709 H       1  UNL1        0.0304
     44 H          -4.8978    1.3459    2.3427 H       1  UNL1        0.0277
     45 H          -4.5297    0.0927    3.5382 H       1  UNL1        0.0277
     46 H          -4.5512   -1.6462    2.0743 H       1  UNL1        0.0414
     47 H          -5.3245    1.0044   -0.3660 H       1  UNL1        0.0235
     48 H          -4.1603    0.4385   -1.6552 H       1  UNL1        0.0235
     49 H          -5.5994   -0.5076   -1.2452 H       1  UNL1        0.0235
     50 H          -5.0738   -2.5249    0.0524 H       1  UNL1        0.0235
     51 H          -3.2861   -2.7238    0.1814 H       1  UNL1        0.0235
     52 H          -4.0973   -2.1527   -1.3781 H       1  UNL1        0.0235
     53 H          -2.0843   -1.1571    0.8856 H       1  UNL1        0.0348
     54 H          -2.1312    0.6225   -1.6219 H       1  UNL1        0.0320
     55 H          -2.2663   -1.2168   -1.5730 H       1  UNL1        0.0320
@<TRIPOS>BOND
     1     1     2    1
     2     2     3    1
     3     3     4    1
     4     4     5    1
     5     5     6    1
     6     6     7   ar
     7     7     8   ar
     8     8     9    1
     9     8    10   ar
    10    10    11   ar
    11    11    12   ar
    12    11    13    1
    13    13    14    1
    14    14    15    1
    15    14    16    1
    16    16    17    1
    17    17    18    1
    18    18    19    1
    19    18    20    1
    20    20    21    1
    21    20    22    1
    22    20    23    1
    23    23    24    1
    24    12     6   ar
    25    23    14    1
    26    24    10    1
    27     1    25    1
    28     1    26    1
    29     1    27    1
    30     2    28    1
    31     2    29    1
    32     3    30    1
    33     3    31    1
    34     4    32    1
    35     4    33    1
    36     5    34    1
    37     5    35    1
    38     7    36    1
    39     9    37    1
    40    12    38    1
    41    15    39    1
    42    15    40    1
    43    15    41    1
    44    16    42    1
    45    16    43    1
    46    17    44    1
    47    17    45    1
    48    18    46    1
    49    21    47    1
    50    21    48    1
    51    21    49    1
    52    22    50    1
    53    22    51    1
    54    22    52    1
    55    23    53    1
    56    24    54    1
    57    24    55    1
@<TRIPOS>MOLECULE
51345631
 49 54 0 0 0
SMALL
GASTEIGER

@<TRIPOS>ATOM
      1 O           2.4567    0.6864   -2.4954 O.2     1  UNL1       -0.2727
      2 C           1.8993    0.5647   -1.3895 C.2     1  UNL1        0.2483
      3 C           0.6448    1.0177   -0.8077 C.3     1  UNL1        0.1096
      4 C          -0.4155    1.6087   -1.6502 C.3     1  UNL1        0.0020
      5 C          -1.5964    1.6957   -0.7300 C.ar    1  UNL1       -0.0147
      6 C          -1.9502    0.4952   -0.0728 C.ar    1  UNL1        0.0456
      7 N          -2.9602    0.7505    0.7598 N.ar    1  UNL1       -0.3560
      8 C          -3.2684    2.0601    0.6570 C.ar    1  UNL1        0.0470
      9 C          -4.2194    2.8070    1.2906 C.ar    1  UNL1       -0.0378
     10 C          -4.3717    4.1696    1.0330 C.ar    1  UNL1       -0.0598
     11 C          -3.5235    4.7362    0.1119 C.ar    1  UNL1       -0.0611
     12 C          -2.5418    4.0213   -0.5584 C.ar    1  UNL1       -0.0523
     13 C          -2.4360    2.6549   -0.2582 C.ar    1  UNL1        0.0032
     14 C          -1.1277   -0.6580   -0.4987 C.3     1  UNL1        0.0938
     15 C          -1.5587   -1.9889   -0.1625 C.ar    1  UNL1       -0.0210
     16 C          -0.6299   -3.0097   -0.1884 C.ar    1  UNL1       -0.0537
     17 C          -1.0222   -4.2955    0.0962 C.ar    1  UNL1       -0.0261
     18 C          -2.3303   -4.6005    0.4093 C.ar    1  UNL1        0.1234
     19 F          -2.7002   -5.8913    0.6912 F       1  UNL1       -0.2055
     20 C          -3.2848   -3.6090    0.4429 C.ar    1  UNL1       -0.0261
     21 C          -2.8510   -2.3045    0.1466 C.ar    1  UNL1       -0.0537
     22 N           0.2191   -0.2858   -0.2048 N.am    1  UNL1       -0.2605
     23 C           1.3823   -0.7185    0.4593 C.2     1  UNL1        0.3170
     24 O           1.3836   -1.4206    1.4889 O.2     1  UNL1       -0.2516
     25 N           2.5129   -0.1847   -0.2892 N.am    1  UNL1       -0.1925
     26 C           3.8690   -0.3763    0.0111 C.ar    1  UNL1        0.0456
     27 C           4.5881    0.4690    0.8256 C.ar    1  UNL1       -0.0371
     28 C           5.9222    0.2618    1.1081 C.ar    1  UNL1       -0.0247
     29 C           6.5780   -0.8168    0.5713 C.ar    1  UNL1        0.1235
     30 F           7.8890   -1.0559    0.8243 F       1  UNL1       -0.2055
     31 C           5.8809   -1.6783   -0.2474 C.ar    1  UNL1       -0.0247
     32 C           4.5365   -1.4561   -0.5228 C.ar    1  UNL1       -0.0371
     33 H           0.7853    1.6629    0.0963 H       1  UNL1        0.0601
     34 H          -0.6254    0.9878   -2.5332 H       1  UNL1        0.0337
     35 H          -0.0815    2.6373   -1.9373 H       1  UNL1        0.0337
     36 H          -3.4591    0.0859    1.4385 H       1  UNL1        0.1657
     37 H          -4.9155    2.4029    2.0290 H       1  UNL1        0.0638
     38 H          -5.1048    4.7918    1.5081 H       1  UNL1        0.0618
     39 H          -3.5705    5.7959   -0.1523 H       1  UNL1        0.0618
     40 H          -1.8776    4.4542   -1.2765 H       1  UNL1        0.0624
     41 H          -1.2669   -0.6315   -1.6639 H       1  UNL1        0.0616
     42 H           0.4228   -2.8838   -0.4472 H       1  UNL1        0.0622
     43 H          -0.2786   -5.1102    0.0761 H       1  UNL1        0.0646
     44 H          -4.3121   -3.8368    0.6865 H       1  UNL1        0.0646
     45 H          -3.6655   -1.5934    0.1517 H       1  UNL1        0.0622
     46 H           4.1115    1.3401    1.2760 H       1  UNL1        0.0637
     47 H           6.4658    0.9563    1.7622 H       1  UNL1        0.0647
     48 H           6.3645   -2.5424   -0.6908 H       1  UNL1        0.0647
     49 H           4.0331   -2.1654   -1.1743 H       1  UNL1        0.0637
@<TRIPOS>BOND
     1     1     2    2
     2     2     3    1
     3     3     4    1
     4     4     5    1
     5     5     6   ar
     6     6     7   ar
     7     7     8   ar
     8     8     9   ar
     9     9    10   ar
    10    10    11   ar
    11    11    12   ar
    12    12    13   ar
    13     6    14    1
    14    14    15    1
    15    15    16   ar
    16    16    17   ar
    17    17    18   ar
    18    18    19    1
    19    18    20   ar
    20    20    21   ar
    21    14    22    1
    22    22    23   am
    23    23    24    2
    24    23    25   am
    25    25    26    1
    26    26    27   ar
    27    27    28   ar
    28    28    29   ar
    29    29    30    1
    30    29    31   ar
    31    31    32   ar
    32    25     2   am
    33    32    26   ar
    34    22     3    1
    35    13     5   ar
    36    21    15   ar
    37    13     8   ar
    38     3    33    1
    39     4    34    1
    40     4    35    1
    41     7    36    1
    42     9    37    1
    43    10    38    1
    44    11    39    1
    45    12    40    1
    46    14    41    1
    47    16    42    1
    48    17    43    1
    49    20    44    1
    50    21    45    1
    51    27    46    1
    52    28    47    1
    53    31    48    1
    54    32    49    1
@<TRIPOS>MOLECULE
CHEMBL5181908
 53 56 0 0 0
SMALL
GASTEIGER

@<TRIPOS>ATOM
      1 C          -4.5479   -3.2568    0.0604 C.3     1  UNL1       -0.0586
      2 C          -5.2435   -2.1242    0.7909 C.3     1  UNL1       -0.0215
      3 C          -4.7028   -2.0210    2.1913 C.3     1  UNL1       -0.0586
      4 C          -4.9283   -0.8431    0.0794 C.ar    1  UNL1       -0.0430
      5 C          -5.9278   -0.0746   -0.4781 C.ar    1  UNL1       -0.0582
      6 C          -5.5993    1.0969   -1.1241 C.ar    1  UNL1       -0.0597
      7 C          -4.2870    1.5066   -1.2183 C.ar    1  UNL1       -0.0404
      8 C          -3.2616    0.7645   -0.6733 C.ar    1  UNL1        0.0350
      9 N          -1.9126    1.2032   -0.7804 N.am    1  UNL1       -0.2693
     10 C          -1.2998    2.0421    0.1960 C.2     1  UNL1        0.3070
     11 O          -2.0117    2.3850    1.1731 O.2     1  UNL1       -0.2523
     12 N           0.0359    2.4769    0.0908 N.am    1  UNL1       -0.2763
     13 C           0.7168    3.3227    1.0369 C.3     1  UNL1        0.0169
     14 C           1.6344    4.1432    0.1701 C.3     1  UNL1       -0.0350
     15 C           1.5558    3.5821   -1.2260 C.3     1  UNL1       -0.0267
     16 C           0.9877    2.1837   -0.9505 C.3     1  UNL1        0.0760
     17 C           2.1514    1.3914   -0.4186 C.ar    1  UNL1        0.0993
     18 N           2.8841    1.4192    0.5372 N.ar    1  UNL1       -0.2498
     19 C           3.8673    0.5912    0.8001 C.ar    1  UNL1        0.0429
     20 C           4.0915   -0.4056   -0.0922 C.ar    1  UNL1        0.0391
     21 C           5.0520   -1.4979   -0.1695 C.ar    1  UNL1       -0.0098
     22 C           5.9964   -1.6645    0.8234 C.ar    1  UNL1       -0.0535
     23 C           6.9200   -2.6672    0.8053 C.ar    1  UNL1       -0.0612
     24 C           6.8936   -3.5509   -0.2685 C.ar    1  UNL1       -0.0617
     25 C           5.9794   -3.4261   -1.2725 C.ar    1  UNL1       -0.0612
     26 C           5.0630   -2.3914   -1.2076 C.ar    1  UNL1       -0.0535
     27 S           2.7937   -0.0682   -1.3295 S.2     1  UNL1       -0.0703
     28 C          -3.6262   -0.4059   -0.0319 C.ar    1  UNL1       -0.0370
     29 H          -3.5195   -3.3910    0.3989 H       1  UNL1        0.0235
     30 H          -4.5264   -3.0825   -1.0427 H       1  UNL1        0.0235
     31 H          -5.1097   -4.1889    0.2930 H       1  UNL1        0.0235
     32 H          -6.3296   -2.2691    0.7582 H       1  UNL1        0.0343
     33 H          -3.7024   -2.4992    2.2514 H       1  UNL1        0.0235
     34 H          -4.5390   -0.9390    2.4615 H       1  UNL1        0.0235
     35 H          -5.3989   -2.4183    2.9609 H       1  UNL1        0.0235
     36 H          -6.9517   -0.4116   -0.3945 H       1  UNL1        0.0620
     37 H          -6.4203    1.6876   -1.5584 H       1  UNL1        0.0618
     38 H          -4.0809    2.4315   -1.7342 H       1  UNL1        0.0636
     39 H          -1.2985    0.9261   -1.5932 H       1  UNL1        0.1564
     40 H           1.2873    2.7276    1.7946 H       1  UNL1        0.0465
     41 H           0.0287    3.9642    1.6229 H       1  UNL1        0.0465
     42 H           2.7103    4.0281    0.4890 H       1  UNL1        0.0281
     43 H           1.3079    5.1978    0.2305 H       1  UNL1        0.0281
     44 H           0.9125    4.1541   -1.8948 H       1  UNL1        0.0288
     45 H           2.5423    3.4213   -1.6920 H       1  UNL1        0.0288
     46 H           0.5619    1.7238   -1.8432 H       1  UNL1        0.0572
     47 H           4.5121    0.6801    1.7172 H       1  UNL1        0.0841
     48 H           6.0162   -0.9653    1.6716 H       1  UNL1        0.0624
     49 H           7.6261   -2.7491    1.5978 H       1  UNL1        0.0618
     50 H           7.6152   -4.3442   -0.2943 H       1  UNL1        0.0618
     51 H           5.9704   -4.1278   -2.1100 H       1  UNL1        0.0618
     52 H           4.3307   -2.2804   -1.9991 H       1  UNL1        0.0624
     53 H          -2.8194   -0.9868    0.3952 H       1  UNL1        0.0639
@<TRIPOS>BOND
     1     1     2    1
     2     2     3    1
     3     2     4    1
     4     4     5   ar
     5     5     6   ar
     6     6     7   ar
     7     7     8   ar
     8     8     9    1
     9     9    10   am
    10    10    11    2
    11    10    12   am
    12    12    13    1
    13    13    14    1
    14    14    15    1
    15    15    16    1
    16    16    17    1
    17    17    18   ar
    18    18    19   ar
    19    19    20   ar
    20    20    21    1
    21    21    22   ar
    22    22    23   ar
    23    23    24   ar
    24    24    25   ar
    25    25    26   ar
    26    20    27   ar
    27     8    28   ar
    28    28     4   ar
    29    16    12    1
    30    27    17   ar
    31    26    21   ar
    32     1    29    1
    33     1    30    1
    34     1    31    1
    35     2    32    1
    36     3    33    1
    37     3    34    1
    38     3    35    1
    39     5    36    1
    40     6    37    1
    41     7    38    1
    42     9    39    1
    43    13    40    1
    44    13    41    1
    45    14    42    1
    46    14    43    1
    47    15    44    1
    48    15    45    1
    49    16    46    1
    50    19    47    1
    51    22    48    1
    52    23    49    1
    53    24    50    1
    54    25    51    1
    55    26    52    1
    56    28    53    1
@<TRIPOS>MOLECULE
171356201
 30 32 0 0 0
SMALL
GASTEIGER

@<TRIPOS>ATOM
      1 C           6.0475   -0.4238   -0.5951 C.3     1  UNL1       -0.0438
      2 C           5.3443   -0.3265    0.7412 C.3     1  UNL1        0.0600
      3 N           4.1227    0.4735    0.6325 N.ar    1  UNL1       -0.1631
      4 N           3.9581    1.7622    0.7878 N.ar    1  UNL1       -0.0458
      5 N           2.6716    2.0818    0.5980 N.ar    1  UNL1       -0.1071
      6 C           2.0009    0.9506    0.3122 C.ar    1  UNL1        0.2163
      7 C           0.5896    0.8973    0.0459 C.ar    1  UNL1        0.1230
      8 S          -0.5449   -0.4233    0.6797 S.2     1  UNL1       -0.0601
      9 C          -2.0046    0.2965   -0.1100 C.ar    1  UNL1        0.1128
     10 C          -3.3340   -0.3423    0.0297 C.ar    1  UNL1        0.0073
     11 C          -3.5023   -1.4880    0.7540 C.ar    1  UNL1       -0.0507
     12 C          -4.7775   -2.0392    0.8472 C.ar    1  UNL1       -0.0428
     13 C          -5.8609   -1.4599    0.2312 C.ar    1  UNL1        0.0410
     14 CL         -7.4669   -2.1917    0.3736 Cl      1  UNL1       -0.0835
     15 C          -5.6843   -0.2995   -0.5011 C.ar    1  UNL1       -0.0428
     16 C          -4.3878    0.2382   -0.5808 C.ar    1  UNL1       -0.0507
     17 N          -1.5405    1.2720   -0.6581 N.ar    1  UNL1       -0.2047
     18 C          -0.2959    1.6543   -0.6457 C.ar    1  UNL1        0.2313
     19 O           0.1336    2.8208   -1.3280 O.3     1  UNL1       -0.4915
     20 N           2.9295   -0.0243    0.3421 N.ar    1  UNL1       -0.1297
     21 H           6.8516   -1.1903   -0.4654 H       1  UNL1        0.0248
     22 H           5.3622   -0.8383   -1.3633 H       1  UNL1        0.0248
     23 H           6.4334    0.5704   -0.8589 H       1  UNL1        0.0248
     24 H           6.0385    0.1237    1.4740 H       1  UNL1        0.0524
     25 H           5.1179   -1.3579    1.0907 H       1  UNL1        0.0524
     26 H          -2.6396   -1.9292    1.2313 H       1  UNL1        0.0625
     27 H          -4.9234   -2.9569    1.4251 H       1  UNL1        0.0632
     28 H          -6.5229    0.1680   -0.9906 H       1  UNL1        0.0632
     29 H          -4.2941    1.1430   -1.1612 H       1  UNL1        0.0625
     30 H           0.1783    2.8390   -2.3370 H       1  UNL1        0.2938
@<TRIPOS>BOND
     1     1     2    1
     2     2     3    1
     3     3     4   ar
     4     4     5   ar
     5     5     6   ar
     6     6     7    1
     7     7     8   ar
     8     8     9   ar
     9     9    10    1
    10    10    11   ar
    11    11    12   ar
    12    12    13   ar
    13    13    14    1
    14    13    15   ar
    15    15    16   ar
    16     9    17   ar
    17    17    18   ar
    18    18    19    1
    19     6    20   ar
    20    20     3   ar
    21    18     7   ar
    22    16    10   ar
    23     1    21    1
    24     1    22    1
    25     1    23    1
    26     2    24    1
    27     2    25    1
    28    11    26    1
    29    12    27    1
    30    15    28    1
    31    16    29    1
    32    19    30    1
@<TRIPOS>MOLECULE
171356393
 34 35 0 0 0
SMALL
GASTEIGER

@<TRIPOS>ATOM
      1 C           5.1960   -0.5713   -0.5411 C.3     1  UNL1       -0.0306
      2 C           4.5930   -0.8440    0.8118 C.3     1  UNL1        0.0900
      3 O           3.1884   -0.9727    0.6883 O.3     1  UNL1       -0.4610
      4 C           2.3848    0.0458    0.2024 C.2     1  UNL1        0.3493
      5 O           2.9323    1.0992   -0.1307 O.2     1  UNL1       -0.2442
      6 C           0.9319   -0.1094    0.0831 C.ar    1  UNL1        0.1381
      7 S          -0.0728   -1.5113    0.4927 S.2     1  UNL1       -0.0588
      8 C          -1.6767   -0.6438   -0.0340 C.ar    1  UNL1        0.1111
      9 C          -2.9368   -1.4286    0.1096 C.ar    1  UNL1        0.0072
     10 C          -4.1304   -0.8452   -0.2588 C.ar    1  UNL1       -0.0520
     11 C          -5.3084   -1.5495   -0.1357 C.ar    1  UNL1       -0.0611
     12 C          -5.3063   -2.8409    0.3555 C.ar    1  UNL1       -0.0617
     13 C          -4.1153   -3.4281    0.7249 C.ar    1  UNL1       -0.0611
     14 C          -2.9606   -2.7062    0.5923 C.ar    1  UNL1       -0.0520
     15 N          -1.2393    0.3763   -0.3682 N.ar    1  UNL1       -0.2233
     16 C          -0.0238    0.8342   -0.3930 C.ar    1  UNL1        0.1473
     17 N           0.3710    2.1458   -0.8432 N.am    1  UNL1       -0.2619
     18 C           0.4325    3.2415    0.0585 C.2     1  UNL1        0.3226
     19 O           0.1409    3.0734    1.2646 O.2     1  UNL1       -0.2656
     20 C           0.8455    4.5721   -0.4576 C.3     1  UNL1        0.4698
     21 F           0.8470    5.5097    0.5576 F       1  UNL1       -0.1620
     22 F          -0.1405    4.9881   -1.3617 F       1  UNL1       -0.1620
     23 F           2.0849    4.5136   -1.0919 F       1  UNL1       -0.1620
     24 H           5.5895    0.4824   -0.5203 H       1  UNL1        0.0262
     25 H           6.0960   -1.2068   -0.7129 H       1  UNL1        0.0262
     26 H           4.4676   -0.6196   -1.3623 H       1  UNL1        0.0262
     27 H           4.9615   -1.8580    1.1287 H       1  UNL1        0.0695
     28 H           4.8881   -0.1100    1.5752 H       1  UNL1        0.0695
     29 H          -4.0906    0.1729   -0.6409 H       1  UNL1        0.0624
     30 H          -6.2505   -1.1211   -0.4142 H       1  UNL1        0.0618
     31 H          -6.2254   -3.4072    0.4578 H       1  UNL1        0.0618
     32 H          -4.0587   -4.4384    1.1159 H       1  UNL1        0.0618
     33 H          -2.0358   -3.1715    0.8828 H       1  UNL1        0.0624
     34 H           0.6210    2.3287   -1.8351 H       1  UNL1        0.1565
@<TRIPOS>BOND
     1     1     2    1
     2     2     3    1
     3     3     4    1
     4     4     5    2
     5     4     6    1
     6     6     7   ar
     7     7     8   ar
     8     8     9    1
     9     9    10   ar
    10    10    11   ar
    11    11    12   ar
    12    12    13   ar
    13    13    14   ar
    14     8    15   ar
    15    15    16   ar
    16    16    17    1
    17    17    18   am
    18    18    19    2
    19    18    20    1
    20    20    21    1
    21    20    22    1
    22    20    23    1
    23    16     6   ar
    24    14     9   ar
    25     1    24    1
    26     1    25    1
    27     1    26    1
    28     2    27    1
    29     2    28    1
    30    10    29    1
    31    11    30    1
    32    12    31    1
    33    13    32    1
    34    14    33    1
    35    17    34    1
@<TRIPOS>MOLECULE
51345626
 52 57 0 0 0
SMALL
GASTEIGER

@<TRIPOS>ATOM
      1 O           1.9999    2.0485   -1.6502 O.2     1  UNL1       -0.2727
      2 C           1.5591    1.1933   -0.8441 C.2     1  UNL1        0.2483
      3 C           0.1009    0.9722   -0.6162 C.3     1  UNL1        0.1096
      4 C          -0.6615    0.7941   -1.9237 C.3     1  UNL1        0.0020
      5 C          -2.0868    0.6211   -1.5152 C.ar    1  UNL1       -0.0147
      6 C          -2.3520   -0.2729   -0.5144 C.ar    1  UNL1        0.0456
      7 N          -3.6752   -0.2630   -0.3147 N.ar    1  UNL1       -0.3560
      8 C          -4.2719    0.5927   -1.1377 C.ar    1  UNL1        0.0470
      9 C          -5.5965    0.9903   -1.3536 C.ar    1  UNL1       -0.0378
     10 C          -5.8942    1.9308   -2.3151 C.ar    1  UNL1       -0.0598
     11 C          -4.8657    2.4672   -3.0538 C.ar    1  UNL1       -0.0611
     12 C          -3.5457    2.1089   -2.8791 C.ar    1  UNL1       -0.0523
     13 C          -3.2829    1.1622   -1.9056 C.ar    1  UNL1        0.0032
     14 C          -1.2327   -1.0182    0.1036 C.3     1  UNL1        0.0938
     15 C          -1.6394   -1.3309    1.4920 C.ar    1  UNL1       -0.0210
     16 C          -1.5569   -0.4283    2.5203 C.ar    1  UNL1       -0.0537
     17 C          -1.9478   -0.7485    3.8167 C.ar    1  UNL1       -0.0261
     18 C          -2.4258   -2.0023    4.0572 C.ar    1  UNL1        0.1234
     19 F          -2.8234   -2.3830    5.2900 F       1  UNL1       -0.2055
     20 C          -2.5254   -2.9432    3.0477 C.ar    1  UNL1       -0.0261
     21 C          -2.1262   -2.5840    1.7739 C.ar    1  UNL1       -0.0537
     22 N           0.0247   -0.3183    0.0473 N.am    1  UNL1       -0.2605
     23 C           1.3142   -0.6252    0.5253 C.2     1  UNL1        0.3170
     24 O           1.6231   -1.5687    1.3169 O.2     1  UNL1       -0.2516
     25 N           2.2679    0.2905   -0.0104 N.am    1  UNL1       -0.1925
     26 C           3.6609    0.3165    0.2275 C.ar    1  UNL1        0.0460
     27 C           4.2206    1.0440    1.2695 C.ar    1  UNL1       -0.0398
     28 C           5.5826    1.0446    1.4691 C.ar    1  UNL1       -0.0595
     29 C           6.4382    0.3369    0.6598 C.ar    1  UNL1       -0.0500
     30 C           5.8983   -0.3863   -0.3735 C.ar    1  UNL1        0.0566
     31 C           6.7857   -1.1650   -1.2718 C.3     1  UNL1        0.4175
     32 F           8.0155   -0.5258   -1.4388 F       1  UNL1       -0.1659
     33 F           6.1786   -1.2371   -2.5307 F       1  UNL1       -0.1659
     34 F           7.0098   -2.4228   -0.7508 F       1  UNL1       -0.1659
     35 C           4.5547   -0.3902   -0.5749 C.ar    1  UNL1       -0.0282
     36 H          -0.3576    1.7519    0.0185 H       1  UNL1        0.0601
     37 H          -0.5111    1.6266   -2.6170 H       1  UNL1        0.0337
     38 H          -0.3435   -0.1904   -2.3377 H       1  UNL1        0.0337
     39 H          -4.1544   -0.8526    0.3938 H       1  UNL1        0.1657
     40 H          -6.3551    0.5234   -0.7324 H       1  UNL1        0.0638
     41 H          -6.9398    2.2314   -2.4713 H       1  UNL1        0.0618
     42 H          -5.0959    3.2093   -3.8131 H       1  UNL1        0.0618
     43 H          -2.7372    2.5171   -3.4454 H       1  UNL1        0.0624
     44 H          -1.1837   -1.9906   -0.4656 H       1  UNL1        0.0616
     45 H          -1.1781    0.5510    2.3074 H       1  UNL1        0.0622
     46 H          -1.8753   -0.0232    4.6145 H       1  UNL1        0.0646
     47 H          -2.9054   -3.9280    3.2574 H       1  UNL1        0.0646
     48 H          -2.2173   -3.3464    1.0035 H       1  UNL1        0.0622
     49 H           3.5532    1.5965    1.9013 H       1  UNL1        0.0636
     50 H           5.9776    1.6366    2.3083 H       1  UNL1        0.0618
     51 H           7.4934    0.3465    0.8267 H       1  UNL1        0.0623
     52 H           4.1054   -0.9592   -1.3915 H       1  UNL1        0.0642
@<TRIPOS>BOND
     1     1     2    2
     2     2     3    1
     3     3     4    1
     4     4     5    1
     5     5     6   ar
     6     6     7   ar
     7     7     8   ar
     8     8     9   ar
     9     9    10   ar
    10    10    11   ar
    11    11    12   ar
    12    12    13   ar
    13     6    14    1
    14    14    15    1
    15    15    16   ar
    16    16    17   ar
    17    17    18   ar
    18    18    19    1
    19    18    20   ar
    20    20    21   ar
    21    14    22    1
    22    22    23   am
    23    23    24    2
    24    23    25   am
    25    25    26    1
    26    26    27   ar
    27    27    28   ar
    28    28    29   ar
    29    29    30   ar
    30    30    31    1
    31    31    32    1
    32    31    33    1
    33    31    34    1
    34    30    35   ar
    35    25     2   am
    36    35    26   ar
    37    22     3    1
    38    13     5   ar
    39    21    15   ar
    40    13     8   ar
    41     3    36    1
    42     4    37    1
    43     4    38    1
    44     7    39    1
    45     9    40    1
    46    10    41    1
    47    11    42    1
    48    12    43    1
    49    14    44    1
    50    16    45    1
    51    17    46    1
    52    20    47    1
    53    21    48    1
    54    27    49    1
    55    28    50    1
    56    29    51    1
    57    35    52    1
@<TRIPOS>MOLECULE
50342273
 56 59 0 0 0
SMALL
GASTEIGER

@<TRIPOS>ATOM
      1 C          -4.2941   -3.6464   -0.2382 C.3     1  UNL1       -0.0389
      2 C          -3.3566   -2.5629    0.2034 C.ar    1  UNL1       -0.0365
      3 C          -3.8446   -1.3284    0.6118 C.ar    1  UNL1       -0.0578
      4 C          -2.9992   -0.3247    1.0278 C.ar    1  UNL1       -0.0568
      5 C          -1.6123   -0.5084    1.0562 C.ar    1  UNL1       -0.0293
      6 C          -0.7365    0.5886    1.5091 C.3     1  UNL1        0.0406
      7 N          -0.3094    1.4804    0.4542 N.am    1  UNL1       -0.2864
      8 C           0.9141    1.2733   -0.1989 C.2     1  UNL1        0.2489
      9 O           1.2759    2.0539   -1.1100 O.2     1  UNL1       -0.2699
     10 C           1.8294    0.1858    0.1085 C.ar    1  UNL1        0.0556
     11 C           2.5134    0.0536    1.2815 C.ar    1  UNL1        0.0404
     12 N           3.3560   -0.9732    1.5270 N.ar    1  UNL1       -0.2542
     13 C           3.5590   -1.9312    0.5982 C.ar    1  UNL1        0.0710
     14 C           4.4275   -2.9894    0.8560 C.ar    1  UNL1       -0.0357
     15 C           4.6077   -3.9425   -0.1098 C.ar    1  UNL1       -0.0597
     16 C           3.9513   -3.8660   -1.3089 C.ar    1  UNL1       -0.0611
     17 C           3.0921   -2.8299   -1.5775 C.ar    1  UNL1       -0.0525
     18 C           2.9018   -1.8562   -0.6030 C.ar    1  UNL1        0.0011
     19 C           2.0521   -0.8182   -0.8462 C.ar    1  UNL1       -0.0390
     20 C          -1.1447    2.5989    0.0261 C.3     1  UNL1        0.0490
     21 C          -1.5190    2.3118   -1.4312 C.3     1  UNL1       -0.0422
     22 C          -0.4493    3.8835    0.0716 C.ar    1  UNL1       -0.0271
     23 C          -0.5456    4.7721   -0.9786 C.ar    1  UNL1       -0.0541
     24 C           0.1018    5.9971   -0.9653 C.ar    1  UNL1       -0.0261
     25 C           0.8687    6.3773    0.0985 C.ar    1  UNL1        0.1234
     26 F           1.5198    7.5878    0.1318 F       1  UNL1       -0.2055
     27 C           0.9829    5.5053    1.1666 C.ar    1  UNL1       -0.0261
     28 C           0.3352    4.3000    1.1336 C.ar    1  UNL1       -0.0541
     29 C          -1.1598   -1.7331    0.6491 C.ar    1  UNL1       -0.0428
     30 C          -2.0038   -2.7537    0.2264 C.ar    1  UNL1        0.0620
     31 C          -1.4600   -4.0360   -0.2110 C.2     1  UNL1        0.3371
     32 O          -0.1989   -4.2076   -0.1790 O.2     1  UNL1       -0.2451
     33 O          -2.2285   -5.0813   -0.6606 O.3     1  UNL1       -0.4771
     34 H          -4.1722   -3.9330   -1.2842 H       1  UNL1        0.0278
     35 H          -5.3408   -3.2467   -0.0968 H       1  UNL1        0.0278
     36 H          -4.2134   -4.5422    0.4038 H       1  UNL1        0.0278
     37 H          -4.9083   -1.1912    0.5903 H       1  UNL1        0.0620
     38 H          -3.3872    0.6403    1.3474 H       1  UNL1        0.0621
     39 H          -1.3243    1.1623    2.2857 H       1  UNL1        0.0514
     40 H           0.1165    0.1632    2.0759 H       1  UNL1        0.0514
     41 H           2.3909    0.7968    2.0536 H       1  UNL1        0.0837
     42 H           4.9276   -3.0315    1.7914 H       1  UNL1        0.0639
     43 H           5.2929   -4.7719    0.0986 H       1  UNL1        0.0618
     44 H           4.1171   -4.6453   -2.0618 H       1  UNL1        0.0618
     45 H           2.5782   -2.7706   -2.5162 H       1  UNL1        0.0624
     46 H           1.5345   -0.7572   -1.7909 H       1  UNL1        0.0632
     47 H          -2.0671    2.6641    0.6426 H       1  UNL1        0.0548
     48 H          -2.4510    2.8770   -1.6058 H       1  UNL1        0.0251
     49 H          -0.7036    2.6075   -2.1099 H       1  UNL1        0.0251
     50 H          -1.6932    1.2341   -1.5940 H       1  UNL1        0.0251
     51 H          -1.1315    4.5698   -1.8741 H       1  UNL1        0.0622
     52 H           0.0256    6.7038   -1.8015 H       1  UNL1        0.0646
     53 H           1.5964    5.8413    1.9878 H       1  UNL1        0.0646
     54 H           0.4246    3.6171    1.9688 H       1  UNL1        0.0622
     55 H          -0.1055   -1.9433    0.6513 H       1  UNL1        0.0629
     56 H          -1.9327   -5.6248   -1.4793 H       1  UNL1        0.2954
@<TRIPOS>BOND
     1     1     2    1
     2     2     3   ar
     3     3     4   ar
     4     4     5   ar
     5     5     6    1
     6     6     7    1
     7     7     8   am
     8     8     9    2
     9     8    10    1
    10    10    11   ar
    11    11    12   ar
    12    12    13   ar
    13    13    14   ar
    14    14    15   ar
    15    15    16   ar
    16    16    17   ar
    17    17    18   ar
    18    18    19   ar
    19     7    20    1
    20    20    21    1
    21    20    22    1
    22    22    23   ar
    23    23    24   ar
    24    24    25   ar
    25    25    26    1
    26    25    27   ar
    27    27    28   ar
    28     5    29   ar
    29    29    30   ar
    30    30    31    1
    31    31    32    2
    32    31    33    1
    33    30     2   ar
    34    19    10   ar
    35    28    22   ar
    36    18    13   ar
    37     1    34    1
    38     1    35    1
    39     1    36    1
    40     3    37    1
    41     4    38    1
    42     6    39    1
    43     6    40    1
    44    11    41    1
    45    14    42    1
    46    15    43    1
    47    16    44    1
    48    17    45    1
    49    19    46    1
    50    20    47    1
    51    21    48    1
    52    21    49    1
    53    21    50    1
    54    23    51    1
    55    24    52    1
    56    27    53    1
    57    28    54    1
    58    29    55    1
    59    33    56    1
@<TRIPOS>MOLECULE
2812
 42 45 0 0 0
SMALL
GASTEIGER

@<TRIPOS>ATOM
      1 CL         -1.0862   -2.7813    0.9117 Cl      1  UNL1       -0.0832
      2 C          -1.9036   -1.6673   -0.1676 C.ar    1  UNL1        0.0470
      3 C          -3.0771   -2.0057   -0.7834 C.ar    1  UNL1       -0.0430
      4 C          -3.7176   -1.0934   -1.5991 C.ar    1  UNL1       -0.0604
      5 C          -3.1863    0.1540   -1.7985 C.ar    1  UNL1       -0.0613
      6 C          -1.9932    0.4709   -1.1614 C.ar    1  UNL1       -0.0543
      7 C          -1.3356   -0.4048   -0.3523 C.ar    1  UNL1        0.0055
      8 C          -0.0612   -0.0290    0.2955 C.3     1  UNL1        0.1233
      9 C           1.0806   -0.8857   -0.1085 C.ar    1  UNL1       -0.0127
     10 C           2.2999   -0.7404    0.4996 C.ar    1  UNL1       -0.0557
     11 C           3.3753   -1.5456    0.1129 C.ar    1  UNL1       -0.0614
     12 C           3.2012   -2.4807   -0.8795 C.ar    1  UNL1       -0.0617
     13 C           1.9807   -2.6270   -1.4912 C.ar    1  UNL1       -0.0614
     14 C           0.9076   -1.8154   -1.0974 C.ar    1  UNL1       -0.0557
     15 C           0.3070    1.3595   -0.0749 C.ar    1  UNL1       -0.0127
     16 C           0.3015    2.4110    0.7986 C.ar    1  UNL1       -0.0557
     17 C           0.6791    3.6948    0.3914 C.ar    1  UNL1       -0.0614
     18 C           1.0567    3.8624   -0.9183 C.ar    1  UNL1       -0.0617
     19 C           1.0683    2.8120   -1.8126 C.ar    1  UNL1       -0.0614
     20 C           0.7012    1.5653   -1.4167 C.ar    1  UNL1       -0.0557
     21 N          -0.3068   -0.1010    1.7283 N.ar    1  UNL1       -0.3186
     22 C           0.3397   -0.7328    2.7089 C.ar    1  UNL1        0.0256
     23 C          -0.3084   -0.5236    3.9130 C.ar    1  UNL1        0.0454
     24 N          -1.3665    0.2512    3.6406 N.ar    1  UNL1       -0.2440
     25 C          -1.3717    0.5098    2.3257 C.ar    1  UNL1        0.0971
     26 H          -3.5142   -2.9850   -0.6399 H       1  UNL1        0.0632
     27 H          -4.6504   -1.3204   -2.1080 H       1  UNL1        0.0618
     28 H          -3.6770    0.8553   -2.4241 H       1  UNL1        0.0618
     29 H          -1.6443    1.4806   -1.3577 H       1  UNL1        0.0622
     30 H           2.5217   -0.0167    1.2690 H       1  UNL1        0.0621
     31 H           4.3472   -1.4518    0.5766 H       1  UNL1        0.0618
     32 H           4.0027   -3.1240   -1.2100 H       1  UNL1        0.0618
     33 H           1.8471   -3.3617   -2.2696 H       1  UNL1        0.0618
     34 H          -0.0044   -1.9829   -1.6460 H       1  UNL1        0.0621
     35 H           0.0153    2.2692    1.8323 H       1  UNL1        0.0621
     36 H           0.6647    4.5219    1.1144 H       1  UNL1        0.0618
     37 H           1.3474    4.8636   -1.2205 H       1  UNL1        0.0618
     38 H           1.3785    2.9874   -2.8553 H       1  UNL1        0.0618
     39 H           0.7076    0.7393   -2.1134 H       1  UNL1        0.0621
     40 H           1.2288   -1.3395    2.6191 H       1  UNL1        0.0825
     41 H          -0.0152   -0.9150    4.9007 H       1  UNL1        0.0845
     42 H          -2.1399    1.1224    1.8676 H       1  UNL1        0.1029
@<TRIPOS>BOND
     1     1     2    1
     2     2     3   ar
     3     3     4   ar
     4     4     5   ar
     5     5     6   ar
     6     6     7   ar
     7     7     8    1
     8     8     9    1
     9     9    10   ar
    10    10    11   ar
    11    11    12   ar
    12    12    13   ar
    13    13    14   ar
    14     8    15    1
    15    15    16   ar
    16    16    17   ar
    17    17    18   ar
    18    18    19   ar
    19    19    20   ar
    20     8    21    1
    21    21    22   ar
    22    22    23   ar
    23    23    24   ar
    24    24    25   ar
    25     7     2   ar
    26    14     9   ar
    27    20    15   ar
    28    25    21   ar
    29     3    26    1
    30     4    27    1
    31     5    28    1
    32     6    29    1
    33    10    30    1
    34    11    31    1
    35    12    32    1
    36    13    33    1
    37    14    34    1
    38    16    35    1
    39    17    36    1
    40    18    37    1
    41    19    38    1
    42    20    39    1
    43    22    40    1
    44    23    41    1
    45    25    42    1
@<TRIPOS>MOLECULE
CHEMBL3927831
 46 48 0 0 0
SMALL
GASTEIGER

@<TRIPOS>ATOM
      1 N           0.6854   -2.1788    2.1070 N.am    1  UNL1       -0.3275
      2 C           1.2201   -0.8955    1.8557 C.2     1  UNL1        0.2356
      3 O           1.9655   -0.4742    2.8315 O.2     1  UNL1       -0.2736
      4 C           1.0420   -0.0524    0.6955 C.3     1  UNL1        0.1278
      5 C           2.2804   -0.1695   -0.1792 C.ar    1  UNL1       -0.0182
      6 C           3.2772   -1.0257    0.1989 C.ar    1  UNL1       -0.0563
      7 C           4.4348   -1.1609   -0.5816 C.ar    1  UNL1       -0.0614
      8 C           4.5702   -0.4251   -1.7413 C.ar    1  UNL1       -0.0617
      9 C           3.5575    0.4430   -2.1230 C.ar    1  UNL1       -0.0614
     10 C           2.4184    0.5553   -1.3243 C.ar    1  UNL1       -0.0563
     11 N          -0.1317   -0.2312   -0.1355 N.am    1  UNL1       -0.2776
     12 C          -0.5303   -1.4620   -0.7686 C.3     1  UNL1        0.0412
     13 C          -1.9083   -1.9059   -0.5447 C.ar    1  UNL1       -0.0274
     14 C          -2.8388   -1.7675   -1.5946 C.ar    1  UNL1       -0.0569
     15 C          -4.1557   -2.1143   -1.4837 C.ar    1  UNL1       -0.0587
     16 C          -4.6344   -2.6265   -0.3083 C.ar    1  UNL1       -0.0264
     17 C          -3.7869   -2.7874    0.7479 C.ar    1  UNL1        0.1237
     18 F          -4.2156   -3.2953    1.9458 F       1  UNL1       -0.2055
     19 C          -2.4470   -2.4214    0.5975 C.ar    1  UNL1       -0.0218
     20 C          -0.9369    0.9193   -0.4340 C.2     1  UNL1        0.2478
     21 O          -1.9461    0.8098   -1.1550 O.2     1  UNL1       -0.2699
     22 C          -0.6566    2.2541    0.0618 C.ar    1  UNL1        0.0369
     23 C          -0.8246    2.4465    1.4211 C.ar    1  UNL1       -0.0496
     24 C          -0.5828    3.6833    2.0097 C.ar    1  UNL1       -0.0610
     25 C          -0.1701    4.7393    1.2377 C.ar    1  UNL1       -0.0617
     26 C          -0.0053    4.5448   -0.1087 C.ar    1  UNL1       -0.0610
     27 C          -0.2477    3.3133   -0.6838 C.ar    1  UNL1       -0.0496
     28 H           0.0227   -2.2918    2.9003 H       1  UNL1        0.1450
     29 H           0.9058   -3.0360    1.5516 H       1  UNL1        0.1450
     30 H           1.0861    1.0268    0.9930 H       1  UNL1        0.0648
     31 H           3.2547   -1.6477    1.0945 H       1  UNL1        0.0621
     32 H           5.1934   -1.8424   -0.2536 H       1  UNL1        0.0618
     33 H           5.4727   -0.5417   -2.3345 H       1  UNL1        0.0618
     34 H           3.6970    1.0021   -3.0299 H       1  UNL1        0.0618
     35 H           1.6691    1.2608   -1.6908 H       1  UNL1        0.0621
     36 H           0.2086   -2.2872   -0.6064 H       1  UNL1        0.0514
     37 H          -0.4178   -1.2539   -1.8795 H       1  UNL1        0.0514
     38 H          -2.5018   -1.3861   -2.5362 H       1  UNL1        0.0621
     39 H          -4.8668   -2.0119   -2.2878 H       1  UNL1        0.0619
     40 H          -5.6979   -2.9060   -0.2242 H       1  UNL1        0.0646
     41 H          -1.8353   -2.5612    1.4460 H       1  UNL1        0.0649
     42 H          -1.1474    1.6482    2.0790 H       1  UNL1        0.0625
     43 H          -0.7091    3.8520    3.0688 H       1  UNL1        0.0618
     44 H           0.0275    5.7335    1.6830 H       1  UNL1        0.0618
     45 H           0.3178    5.3438   -0.7607 H       1  UNL1        0.0618
     46 H          -0.1119    3.1836   -1.7555 H       1  UNL1        0.0625
@<TRIPOS>BOND
     1     1     2   am
     2     2     3    2
     3     2     4    1
     4     4     5    1
     5     5     6   ar
     6     6     7   ar
     7     7     8   ar
     8     8     9   ar
     9     9    10   ar
    10     4    11    1
    11    11    12    1
    12    12    13    1
    13    13    14   ar
    14    14    15   ar
    15    15    16   ar
    16    16    17   ar
    17    17    18    1
    18    17    19   ar
    19    11    20   am
    20    20    21    2
    21    20    22    1
    22    22    23   ar
    23    23    24   ar
    24    24    25   ar
    25    25    26   ar
    26    26    27   ar
    27    10     5   ar
    28    19    13   ar
    29    27    22   ar
    30     1    28    1
    31     1    29    1
    32     4    30    1
    33     6    31    1
    34     7    32    1
    35     8    33    1
    36     9    34    1
    37    10    35    1
    38    12    36    1
    39    12    37    1
    40    14    38    1
    41    15    39    1
    42    16    40    1
    43    19    41    1
    44    23    42    1
    45    24    43    1
    46    25    44    1
    47    26    45    1
    48    27    46    1
@<TRIPOS>MOLECULE
51135384
 53 56 0 0 0
SMALL
GASTEIGER

@<TRIPOS>ATOM
      1 O           1.3342    1.3824   -2.6506 O.2     1  UNL1       -0.2492
      2 C           0.8320    0.5221   -1.9063 C.2     1  UNL1        0.3225
      3 O           0.6758   -0.7684   -2.3628 O.3     1  UNL1       -0.4795
      4 C           0.4084    0.8963   -0.5382 C.3     1  UNL1        0.1128
      5 C           1.5167    1.2546    0.3975 C.3     1  UNL1        0.0004
      6 C           2.5524    0.2600    0.6963 C.ar    1  UNL1       -0.0203
      7 C           2.6349   -0.5313    1.8559 C.ar    1  UNL1        0.0060
      8 N           3.7003   -1.3312    1.8035 N.ar    1  UNL1       -0.3604
      9 C           4.3646   -1.1229    0.6470 C.ar    1  UNL1        0.0467
     10 C           5.5221   -1.6977    0.1566 C.ar    1  UNL1       -0.0378
     11 C           6.0259   -1.3049   -1.0515 C.ar    1  UNL1       -0.0598
     12 C           5.3478   -0.3332   -1.7448 C.ar    1  UNL1       -0.0611
     13 C           4.1905    0.2356   -1.2464 C.ar    1  UNL1       -0.0523
     14 C           3.6522   -0.1406   -0.0286 C.ar    1  UNL1        0.0029
     15 N          -0.6460    0.1087   -0.0544 N.3     1  UNL1       -0.2813
     16 C          -1.8467    0.1066   -0.8209 C.3     1  UNL1        0.0252
     17 C          -2.3904    1.4765   -0.9126 C.ar    1  UNL1       -0.0333
     18 C          -2.1257    2.3656   -1.9354 C.ar    1  UNL1       -0.0573
     19 C          -2.6503    3.6376   -1.9895 C.ar    1  UNL1       -0.0615
     20 C          -3.4818    4.0779   -0.9940 C.ar    1  UNL1       -0.0617
     21 C          -3.7737    3.2319    0.0418 C.ar    1  UNL1       -0.0615
     22 C          -3.2371    1.9460    0.0865 C.ar    1  UNL1       -0.0573
     23 C          -0.5317   -0.8169    0.9673 C.3     1  UNL1        0.0252
     24 C          -1.7696   -1.5560    1.3029 C.ar    1  UNL1       -0.0333
     25 C          -2.6458   -1.0983    2.2465 C.ar    1  UNL1       -0.0573
     26 C          -3.8095   -1.7743    2.5756 C.ar    1  UNL1       -0.0615
     27 C          -4.1044   -2.9515    1.9349 C.ar    1  UNL1       -0.0617
     28 C          -3.2489   -3.4325    0.9890 C.ar    1  UNL1       -0.0615
     29 C          -2.0719   -2.7332    0.6674 C.ar    1  UNL1       -0.0573
     30 H           1.1647   -1.1116   -3.1874 H       1  UNL1        0.2951
     31 H          -0.0949    1.9394   -0.7223 H       1  UNL1        0.0582
     32 H           1.0915    1.6273    1.3854 H       1  UNL1        0.0334
     33 H           1.9826    2.2000   -0.0153 H       1  UNL1        0.0334
     34 H           1.9443   -0.4977    2.6847 H       1  UNL1        0.0810
     35 H           3.9942   -2.0174    2.5287 H       1  UNL1        0.1653
     36 H           6.0358   -2.4565    0.7183 H       1  UNL1        0.0638
     37 H           6.9501   -1.7505   -1.4650 H       1  UNL1        0.0618
     38 H           5.7080    0.0146   -2.7102 H       1  UNL1        0.0618
     39 H           3.6721    1.0122   -1.7668 H       1  UNL1        0.0624
     40 H          -1.7184   -0.2634   -1.8571 H       1  UNL1        0.0476
     41 H          -2.6072   -0.5011   -0.2595 H       1  UNL1        0.0476
     42 H          -1.4756    2.0592   -2.7408 H       1  UNL1        0.0621
     43 H          -2.4243    4.3116   -2.8043 H       1  UNL1        0.0618
     44 H          -3.9192    5.0669   -0.9900 H       1  UNL1        0.0618
     45 H          -4.4240    3.5291    0.8527 H       1  UNL1        0.0618
     46 H          -3.4894    1.3220    0.9077 H       1  UNL1        0.0621
     47 H          -0.2087   -0.2693    1.9025 H       1  UNL1        0.0476
     48 H           0.2972   -1.5141    0.7220 H       1  UNL1        0.0476
     49 H          -2.4649   -0.1778    2.7824 H       1  UNL1        0.0621
     50 H          -4.5047   -1.4195    3.3183 H       1  UNL1        0.0618
     51 H          -5.0258   -3.5175    2.1733 H       1  UNL1        0.0618
     52 H          -3.4858   -4.3645    0.4841 H       1  UNL1        0.0618
     53 H          -1.4220   -3.1304   -0.0741 H       1  UNL1        0.0621
@<TRIPOS>BOND
     1     1     2    2
     2     2     3    1
     3     2     4    1
     4     4     5    1
     5     5     6    1
     6     6     7   ar
     7     7     8   ar
     8     8     9   ar
     9     9    10   ar
    10    10    11   ar
    11    11    12   ar
    12    12    13   ar
    13    13    14   ar
    14     4    15    1
    15    15    16    1
    16    16    17    1
    17    17    18   ar
    18    18    19   ar
    19    19    20   ar
    20    20    21   ar
    21    21    22   ar
    22    15    23    1
    23    23    24    1
    24    24    25   ar
    25    25    26   ar
    26    26    27   ar
    27    27    28   ar
    28    28    29   ar
    29    14     6   ar
    30    22    17   ar
    31    29    24   ar
    32    14     9   ar
    33     3    30    1
    34     4    31    1
    35     5    32    1
    36     5    33    1
    37     7    34    1
    38     8    35    1
    39    10    36    1
    40    11    37    1
    41    12    38    1
    42    13    39    1
    43    16    40    1
    44    16    41    1
    45    18    42    1
    46    19    43    1
    47    20    44    1
    48    21    45    1
    49    22    46    1
    50    23    47    1
    51    23    48    1
    52    25    49    1
    53    26    50    1
    54    27    51    1
    55    28    52    1
    56    29    53    1
@<TRIPOS>MOLECULE
66601131
 44 46 0 0 0
SMALL
GASTEIGER

@<TRIPOS>ATOM
      1 O           5.3888    2.8402   -1.2230 O.2     1  UNL1       -0.2451
      2 C           4.9383    1.6690   -1.2120 C.2     1  UNL1        0.3368
      3 O           5.6659    0.6904   -1.8662 O.3     1  UNL1       -0.4771
      4 C           3.6885    1.3663   -0.5281 C.ar    1  UNL1        0.0589
      5 C           2.9521    2.3301    0.1281 C.ar    1  UNL1       -0.0459
      6 C           1.7679    2.0421    0.7757 C.ar    1  UNL1       -0.0343
      7 C           1.2491    0.7649    0.8039 C.ar    1  UNL1        0.1088
      8 S          -0.2277    0.3452    1.5870 S.O2    1  UNL1        0.0762
      9 O          -0.7768    1.5030    2.3964 O.2     1  UNL1       -0.1497
     10 O           0.0692   -0.7555    2.5966 O.2     1  UNL1       -0.1497
     11 N          -1.4983   -0.1851    0.5778 N.pl3   1  UNL1       -0.1786
     12 C          -2.0676    0.6357   -0.4110 C.3     1  UNL1        0.0786
     13 C          -1.1956    1.7819   -0.7912 C.ar    1  UNL1        0.0603
     14 C          -0.3090    1.6019   -1.8316 C.ar    1  UNL1       -0.0388
     15 C           0.4477    2.6772   -2.2380 C.ar    1  UNL1       -0.0586
     16 C           0.3373    3.9222   -1.6283 C.ar    1  UNL1       -0.0436
     17 C          -0.5718    4.0362   -0.5870 C.ar    1  UNL1        0.0279
     18 N          -1.3112    2.9854   -0.1898 N.ar    1  UNL1       -0.2582
     19 C          -1.9601   -1.5420    0.7671 C.ar    1  UNL1        0.1592
     20 N          -1.2462   -2.3514    1.6216 N.ar    1  UNL1       -0.2368
     21 C          -1.5941   -3.6049    1.9071 C.ar    1  UNL1        0.0415
     22 C          -2.7301   -4.0913    1.3029 C.ar    1  UNL1        0.0744
     23 C          -3.1141   -5.5004    1.6273 C.3     1  UNL1        0.4189
     24 F          -4.3352   -5.7950    1.0842 F       1  UNL1       -0.1658
     25 F          -2.1565   -6.3095    1.0035 F       1  UNL1       -0.1658
     26 F          -3.0530   -5.7548    2.9734 F       1  UNL1       -0.1658
     27 C          -3.4919   -3.3504    0.4448 C.ar    1  UNL1       -0.0269
     28 C          -3.0831   -2.0239    0.1731 C.ar    1  UNL1        0.0828
     29 CL         -4.1261   -1.0828   -0.8753 Cl      1  UNL1       -0.0799
     30 C           2.0048   -0.2067    0.1345 C.ar    1  UNL1       -0.0343
     31 C           3.1872    0.0812   -0.5119 C.ar    1  UNL1       -0.0459
     32 H           6.6153    0.8722   -2.1612 H       1  UNL1        0.2954
     33 H           3.3708    3.3437    0.1013 H       1  UNL1        0.0626
     34 H           1.2438    2.8281    1.2727 H       1  UNL1        0.0637
     35 H          -2.2641    0.0535   -1.3782 H       1  UNL1        0.0548
     36 H          -3.0306    1.0494   -0.0644 H       1  UNL1        0.0548
     37 H          -0.1739    0.6656   -2.3462 H       1  UNL1        0.0636
     38 H           1.1472    2.5560   -3.0514 H       1  UNL1        0.0619
     39 H           0.9249    4.7461   -1.9490 H       1  UNL1        0.0633
     40 H          -0.6637    5.0152   -0.1013 H       1  UNL1        0.0829
     41 H          -1.0061   -4.2131    2.5859 H       1  UNL1        0.0836
     42 H          -4.3928   -3.7367   -0.0341 H       1  UNL1        0.0639
     43 H           1.6118   -1.2290    0.1439 H       1  UNL1        0.0637
     44 H           3.7691   -0.6701   -1.0280 H       1  UNL1        0.0626
@<TRIPOS>BOND
     1     1     2    2
     2     2     3    1
     3     2     4    1
     4     4     5   ar
     5     5     6   ar
     6     6     7   ar
     7     7     8    1
     8     8     9    2
     9     8    10    2
    10     8    11    1
    11    11    12    1
    12    12    13    1
    13    13    14   ar
    14    14    15   ar
    15    15    16   ar
    16    16    17   ar
    17    17    18   ar
    18    11    19    1
    19    19    20   ar
    20    20    21   ar
    21    21    22   ar
    22    22    23    1
    23    23    24    1
    24    23    25    1
    25    23    26    1
    26    22    27   ar
    27    27    28   ar
    28    28    29    1
    29     7    30   ar
    30    30    31   ar
    31    31     4   ar
    32    18    13   ar
    33    28    19   ar
    34     3    32    1
    35     5    33    1
    36     6    34    1
    37    12    35    1
    38    12    36    1
    39    14    37    1
    40    15    38    1
    41    16    39    1
    42    17    40    1
    43    21    41    1
    44    27    42    1
    45    30    43    1
    46    31    44    1
@<TRIPOS>MOLECULE
51027971
 51 52 0 0 0
SMALL
GASTEIGER

@<TRIPOS>ATOM
      1 C          -5.4337    3.4478   -0.4219 C.3     1  UNL1       -0.0396
      2 C          -4.9249    2.0653   -0.2315 C.ar    1  UNL1       -0.0470
      3 C          -5.5348    0.9634   -0.8443 C.ar    1  UNL1       -0.0583
      4 C          -5.0666   -0.3204   -0.6715 C.ar    1  UNL1       -0.0546
      5 C          -3.9538   -0.5757    0.1300 C.ar    1  UNL1       -0.0024
      6 C          -3.4290   -1.9398    0.3340 C.3     1  UNL1       -0.0180
      7 C          -4.0650   -2.6173    1.5289 C.3     1  UNL1       -0.0585
      8 C          -3.7319   -2.8317   -0.8788 C.3     1  UNL1       -0.0585
      9 C          -3.3565    0.5124    0.7315 C.ar    1  UNL1        0.1369
     10 O          -2.2389    0.2264    1.5323 O.3     1  UNL1       -0.4110
     11 C          -0.9756    0.2692    0.9110 C.2     1  UNL1        0.4099
     12 O          -0.8520    0.5464   -0.2875 O.2     1  UNL1       -0.2257
     13 N           0.2122   -0.0100    1.6593 N.am    1  UNL1       -0.2508
     14 C           1.5110    0.0219    1.0760 C.ar    1  UNL1        0.0365
     15 C           2.1006   -1.0879    0.4970 C.ar    1  UNL1       -0.0401
     16 C           3.3739   -0.9810   -0.0516 C.ar    1  UNL1       -0.0563
     17 C           4.0906    0.1825   -0.0513 C.ar    1  UNL1       -0.0419
     18 C           5.4238    0.2284   -0.6430 C.3     1  UNL1       -0.0127
     19 C           5.3498    0.5943   -2.1063 C.3     1  UNL1       -0.0560
     20 C           6.0769   -1.1452   -0.4885 C.3     1  UNL1       -0.0560
     21 C           6.3276    1.2215    0.0525 C.3     1  UNL1       -0.0560
     22 C           3.4982    1.2878    0.5275 C.ar    1  UNL1       -0.0563
     23 C           2.2200    1.1973    1.0830 C.ar    1  UNL1       -0.0401
     24 C          -3.8286    1.7971    0.5558 C.ar    1  UNL1       -0.0160
     25 H          -4.6025    4.1946   -0.3906 H       1  UNL1        0.0278
     26 H          -5.9015    3.5835   -1.4311 H       1  UNL1        0.0278
     27 H          -6.2081    3.6687    0.3204 H       1  UNL1        0.0278
     28 H          -6.3848    1.1629   -1.4555 H       1  UNL1        0.0620
     29 H          -5.5307   -1.1851   -1.1421 H       1  UNL1        0.0622
     30 H          -2.3325   -1.8973    0.4073 H       1  UNL1        0.0345
     31 H          -5.0478   -2.1288    1.7616 H       1  UNL1        0.0235
     32 H          -4.3066   -3.6847    1.3231 H       1  UNL1        0.0235
     33 H          -3.3933   -2.6210    2.4056 H       1  UNL1        0.0235
     34 H          -3.1403   -3.7545   -0.8414 H       1  UNL1        0.0235
     35 H          -4.8057   -3.1055   -0.7820 H       1  UNL1        0.0235
     36 H          -3.5965   -2.2683   -1.8186 H       1  UNL1        0.0235
     37 H           0.1538   -0.2484    2.6699 H       1  UNL1        0.1582
     38 H           1.5438   -2.0020    0.4934 H       1  UNL1        0.0636
     39 H           3.7912   -1.8653   -0.4885 H       1  UNL1        0.0621
     40 H           6.3417    1.0026   -2.4029 H       1  UNL1        0.0238
     41 H           5.0664   -0.2917   -2.7134 H       1  UNL1        0.0238
     42 H           4.5462    1.3625   -2.2649 H       1  UNL1        0.0238
     43 H           7.1866   -1.0235   -0.5131 H       1  UNL1        0.0238
     44 H           5.8241   -1.5119    0.5325 H       1  UNL1        0.0238
     45 H           5.7739   -1.8391   -1.2806 H       1  UNL1        0.0238
     46 H           6.3225    1.1209    1.1428 H       1  UNL1        0.0238
     47 H           7.3491    1.1024   -0.3458 H       1  UNL1        0.0238
     48 H           5.9814    2.2294   -0.2349 H       1  UNL1        0.0238
     49 H           4.0742    2.2019    0.5214 H       1  UNL1        0.0621
     50 H           1.8145    2.1196    1.5249 H       1  UNL1        0.0636
     51 H          -3.3124    2.6275    1.0601 H       1  UNL1        0.0657
@<TRIPOS>BOND
     1     1     2    1
     2     2     3   ar
     3     3     4   ar
     4     4     5   ar
     5     5     6    1
     6     6     7    1
     7     6     8    1
     8     5     9   ar
     9     9    10    1
    10    10    11    1
    11    11    12    2
    12    11    13   am
    13    13    14    1
    14    14    15   ar
    15    15    16   ar
    16    16    17   ar
    17    17    18    1
    18    18    19    1
    19    18    20    1
    20    18    21    1
    21    17    22   ar
    22    22    23   ar
    23     9    24   ar
    24    24     2   ar
    25    23    14   ar
    26     1    25    1
    27     1    26    1
    28     1    27    1
    29     3    28    1
    30     4    29    1
    31     6    30    1
    32     7    31    1
    33     7    32    1
    34     7    33    1
    35     8    34    1
    36     8    35    1
    37     8    36    1
    38    13    37    1
    39    15    38    1
    40    16    39    1
    41    19    40    1
    42    19    41    1
    43    19    42    1
    44    20    43    1
    45    20    44    1
    46    20    45    1
    47    21    46    1
    48    21    47    1
    49    21    48    1
    50    22    49    1
    51    23    50    1
    52    24    51    1
@<TRIPOS>MOLECULE
51324109
 76 79 0 0 0
SMALL
GASTEIGER

@<TRIPOS>ATOM
      1 C           4.5789   -3.1840   -0.0367 C.3     1  UNL1       -0.0652
      2 C           3.9323   -2.5875   -1.2945 C.3     1  UNL1       -0.0539
      3 C           2.4936   -2.1583   -0.9598 C.3     1  UNL1       -0.0303
      4 C           2.5454   -1.1488    0.0919 C.3     1  UNL1        0.0530
      5 C           3.2189    0.1282   -0.2001 C.ar    1  UNL1       -0.0201
      6 C           3.6006    0.6227   -1.3956 C.ar    1  UNL1       -0.0111
      7 C           4.2428    1.8601   -1.5042 C.ar    1  UNL1        0.1618
      8 O           4.6252    2.3439   -2.7445 O.3     1  UNL1       -0.4914
      9 C           4.3464    1.5516   -3.8804 C.3     1  UNL1        0.0790
     10 C           4.5055    2.6211   -0.3622 C.ar    1  UNL1        0.1618
     11 O           5.1357    3.8213   -0.5266 O.3     1  UNL1       -0.4914
     12 C           5.4841    4.7194    0.4768 C.3     1  UNL1        0.0790
     13 C           4.1014    2.0899    0.8499 C.ar    1  UNL1       -0.0128
     14 C           3.4778    0.8897    0.9594 C.ar    1  UNL1       -0.0373
     15 C           3.0118    0.3364    2.2428 C.3     1  UNL1       -0.0113
     16 C           1.5801   -0.1937    2.1176 C.3     1  UNL1        0.0207
     17 N           1.3338   -0.8321    0.8359 N.am    1  UNL1       -0.2781
     18 C           0.0722   -1.1342    0.3410 C.2     1  UNL1        0.3058
     19 O           0.0874   -1.6707   -0.8555 O.2     1  UNL1       -0.2524
     20 N          -1.1941   -0.9626    0.8973 N.am    1  UNL1       -0.2781
     21 C          -1.5680   -0.4717    2.1861 C.3     1  UNL1        0.0207
     22 C          -2.1183    0.9480    2.0727 C.3     1  UNL1       -0.0113
     23 C          -3.1011    0.9539    0.9209 C.ar    1  UNL1       -0.0373
     24 C          -3.9178    2.0541    0.8123 C.ar    1  UNL1       -0.0128
     25 C          -4.8568    2.2106   -0.1659 C.ar    1  UNL1        0.1618
     26 O          -5.6985    3.2863   -0.3226 O.3     1  UNL1       -0.4914
     27 C          -5.7522    4.4209    0.4875 C.3     1  UNL1        0.0790
     28 C          -4.9612    1.1761   -1.0845 C.ar    1  UNL1        0.1618
     29 O          -5.8838    1.2440   -2.1113 O.3     1  UNL1       -0.4914
     30 C          -6.0632    0.2574   -3.0798 C.3     1  UNL1        0.0790
     31 C          -4.1583    0.0652   -1.0005 C.ar    1  UNL1       -0.0111
     32 C          -3.2050   -0.0581    0.0199 C.ar    1  UNL1       -0.0201
     33 C          -2.3738   -1.2931    0.0362 C.3     1  UNL1        0.0530
     34 C          -3.1771   -2.4148    0.5891 C.3     1  UNL1       -0.0303
     35 C          -2.3774   -3.6945    0.7352 C.3     1  UNL1       -0.0539
     36 C          -3.3083   -4.7416    1.3029 C.3     1  UNL1       -0.0652
     37 H           3.7943   -3.5969    0.6259 H       1  UNL1        0.0230
     38 H           5.0621   -2.3549    0.5177 H       1  UNL1        0.0230
     39 H           5.3659   -3.8980   -0.3045 H       1  UNL1        0.0230
     40 H           4.5840   -1.7617   -1.5792 H       1  UNL1        0.0263
     41 H           3.8866   -3.4204   -2.0257 H       1  UNL1        0.0263
     42 H           1.9449   -3.0386   -0.6318 H       1  UNL1        0.0286
     43 H           2.0658   -1.6750   -1.8934 H       1  UNL1        0.0286
     44 H           3.1944   -1.6579    0.9289 H       1  UNL1        0.0551
     45 H           3.3775    0.0397   -2.2905 H       1  UNL1        0.0659
     46 H           4.7516    0.5088   -3.7378 H       1  UNL1        0.0660
     47 H           4.8382    1.9364   -4.7963 H       1  UNL1        0.0660
     48 H           3.2536    1.4376   -4.0247 H       1  UNL1        0.0660
     49 H           5.7623    4.1249    1.3920 H       1  UNL1        0.0660
     50 H           4.7293    5.4812    0.7118 H       1  UNL1        0.0660
     51 H           6.4562    5.2011    0.1648 H       1  UNL1        0.0660
     52 H           4.3247    2.7175    1.7261 H       1  UNL1        0.0658
     53 H           3.0645    1.0860    3.0539 H       1  UNL1        0.0328
     54 H           3.6483   -0.5174    2.5341 H       1  UNL1        0.0328
     55 H           1.4122   -0.8982    2.9360 H       1  UNL1        0.0468
     56 H           0.9515    0.6993    2.2478 H       1  UNL1        0.0468
     57 H          -2.4281   -1.1166    2.5560 H       1  UNL1        0.0468
     58 H          -0.8017   -0.4907    2.9483 H       1  UNL1        0.0468
     59 H          -1.3456    1.6977    1.9351 H       1  UNL1        0.0328
     60 H          -2.7032    1.1594    2.9747 H       1  UNL1        0.0328
     61 H          -3.8283    2.8568    1.5350 H       1  UNL1        0.0658
     62 H          -4.8933    4.5545    1.1572 H       1  UNL1        0.0660
     63 H          -6.6789    4.4292    1.0963 H       1  UNL1        0.0660
     64 H          -5.7983    5.3188   -0.1964 H       1  UNL1        0.0660
     65 H          -6.0817   -0.7800   -2.6423 H       1  UNL1        0.0660
     66 H          -5.2555    0.2444   -3.8456 H       1  UNL1        0.0660
     67 H          -7.0323    0.3504   -3.6132 H       1  UNL1        0.0660
     68 H          -4.2585   -0.7434   -1.7417 H       1  UNL1        0.0659
     69 H          -2.0509   -1.5056   -0.9904 H       1  UNL1        0.0551
     70 H          -3.7459   -2.1525    1.4953 H       1  UNL1        0.0286
     71 H          -3.9861   -2.6199   -0.1838 H       1  UNL1        0.0286
     72 H          -2.0428   -4.0280   -0.2581 H       1  UNL1        0.0263
     73 H          -1.5007   -3.5557    1.3749 H       1  UNL1        0.0263
     74 H          -2.8747   -5.2284    2.2099 H       1  UNL1        0.0230
     75 H          -4.2793   -4.3110    1.6124 H       1  UNL1        0.0230
     76 H          -3.5410   -5.5480    0.5672 H       1  UNL1        0.0230
@<TRIPOS>BOND
     1     1     2    1
     2     2     3    1
     3     3     4    1
     4     4     5    1
     5     5     6   ar
     6     6     7   ar
     7     7     8    1
     8     8     9    1
     9     7    10   ar
    10    10    11    1
    11    11    12    1
    12    10    13   ar
    13    13    14   ar
    14    14    15    1
    15    15    16    1
    16    16    17    1
    17    17    18   am
    18    18    19    2
    19    18    20   am
    20    20    21    1
    21    21    22    1
    22    22    23    1
    23    23    24   ar
    24    24    25   ar
    25    25    26    1
    26    26    27    1
    27    25    28   ar
    28    28    29    1
    29    29    30    1
    30    28    31   ar
    31    31    32   ar
    32    32    33    1
    33    33    34    1
    34    34    35    1
    35    35    36    1
    36    17     4    1
    37    33    20    1
    38    14     5   ar
    39    32    23   ar
    40     1    37    1
    41     1    38    1
    42     1    39    1
    43     2    40    1
    44     2    41    1
    45     3    42    1
    46     3    43    1
    47     4    44    1
    48     6    45    1
    49     9    46    1
    50     9    47    1
    51     9    48    1
    52    12    49    1
    53    12    50    1
    54    12    51    1
    55    13    52    1
    56    15    53    1
    57    15    54    1
    58    16    55    1
    59    16    56    1
    60    21    57    1
    61    21    58    1
    62    22    59    1
    63    22    60    1
    64    24    61    1
    65    27    62    1
    66    27    63    1
    67    27    64    1
    68    30    65    1
    69    30    66    1
    70    30    67    1
    71    31    68    1
    72    33    69    1
    73    34    70    1
    74    34    71    1
    75    35    72    1
    76    35    73    1
    77    36    74    1
    78    36    75    1
    79    36    76    1
@<TRIPOS>MOLECULE
50333145
 35 37 0 0 0
SMALL
GASTEIGER

@<TRIPOS>ATOM
      1 O           1.4416   -2.1587    0.8887 O.2     1  UNL1       -0.2519
      2 C           0.9515   -1.0630    0.4369 C.2     1  UNL1        0.3111
      3 N          -0.4648   -0.8903    0.3991 N.am    1  UNL1       -0.2687
      4 C          -1.0486    0.3245   -0.1009 C.2     1  UNL1        0.0397
      5 C          -2.4957    0.4957   -0.1373 C.ar    1  UNL1        0.0024
      6 C          -3.1013    1.6390   -0.6064 C.ar    1  UNL1       -0.0524
      7 C          -4.4925    1.7989   -0.6394 C.ar    1  UNL1       -0.0547
      8 C          -5.3056    0.8078   -0.1994 C.ar    1  UNL1        0.0156
      9 C          -4.7434   -0.3439    0.2743 C.ar    1  UNL1        0.2738
     10 N          -5.5922   -1.3800    0.7342 N.pl3   1  UNL1        0.0796
     11 O          -6.8211   -1.2310    0.7017 O.2     1  UNL1        0.0414
     12 O          -5.0738   -2.5540    1.2184 O.co2   1  UNL1       -0.5760
     13 C          -3.3570   -0.5015    0.3065 C.ar    1  UNL1        0.0245
     14 C          -0.2240    1.2585   -0.5170 C.2     1  UNL1       -0.0445
     15 C           1.2562    1.1859   -0.5231 C.3     1  UNL1        0.0415
     16 N           1.7932   -0.0223   -0.0249 N.am    1  UNL1       -0.2487
     17 C           3.2158   -0.2693    0.0442 C.ar    1  UNL1        0.0732
     18 C           3.9562    0.0636    1.1576 C.ar    1  UNL1       -0.0374
     19 C           5.3148   -0.1743    1.2188 C.ar    1  UNL1       -0.0598
     20 C           5.9518   -0.7585    0.1438 C.ar    1  UNL1       -0.0589
     21 C           5.2098   -1.0910   -0.9693 C.ar    1  UNL1       -0.0246
     22 C           3.8524   -0.8532   -1.0301 C.ar    1  UNL1        0.1447
     23 F           3.1494   -1.2002   -2.1597 F       1  UNL1       -0.2035
     24 H          -1.0648   -1.6728    0.7455 H       1  UNL1        0.1564
     25 H          -2.5466    2.4848   -0.9784 H       1  UNL1        0.0624
     26 H          -4.9136    2.7257   -1.0214 H       1  UNL1        0.0620
     27 H          -6.3880    0.9670   -0.2399 H       1  UNL1        0.0685
     28 H          -2.9881   -1.4200    0.6863 H       1  UNL1        0.0692
     29 H          -0.7017    2.1836   -0.8968 H       1  UNL1        0.0606
     30 H           1.6121    2.0488    0.1158 H       1  UNL1        0.0513
     31 H           1.5993    1.4544   -1.5458 H       1  UNL1        0.0513
     32 H           3.4264    0.5288    2.0035 H       1  UNL1        0.0637
     33 H           5.8744    0.1016    2.1171 H       1  UNL1        0.0618
     34 H           7.0109   -0.9327    0.2179 H       1  UNL1        0.0618
     35 H           5.7069   -1.5515   -1.8190 H       1  UNL1        0.0647
@<TRIPOS>UNITY_ATOM_ATTR
10 1
charge 1
12 1
charge -1
@<TRIPOS>BOND
     1     1     2    2
     2     2     3   am
     3     3     4    1
     4     4     5    1
     5     5     6   ar
     6     6     7   ar
     7     7     8   ar
     8     8     9   ar
     9     9    10    1
    10    10    11    2
    11    10    12    1
    12     9    13   ar
    13     4    14    2
    14    14    15    1
    15    15    16    1
    16    16    17    1
    17    17    18   ar
    18    18    19   ar
    19    19    20   ar
    20    20    21   ar
    21    21    22   ar
    22    22    23    1
    23    16     2   am
    24    22    17   ar
    25    13     5   ar
    26     3    24    1
    27     6    25    1
    28     7    26    1
    29     8    27    1
    30    13    28    1
    31    14    29    1
    32    15    30    1
    33    15    31    1
    34    18    32    1
    35    19    33    1
    36    20    34    1
    37    21    35    1
@<TRIPOS>MOLECULE
51082011
 57 59 0 0 0
SMALL
GASTEIGER

@<TRIPOS>ATOM
      1 C           2.5484   -2.0563   -0.4287 C.3     1  UNL1       -0.0467
      2 C           1.1672   -1.4042   -0.4425 C.3     1  UNL1        0.0210
      3 C           0.9690   -0.8403   -1.8216 C.3     1  UNL1       -0.0467
      4 N           0.9433   -0.4972    0.6342 N.am    1  UNL1       -0.2918
      5 C          -0.0930   -0.8482    1.5543 C.2     1  UNL1        0.2506
      6 O          -0.4080   -0.1509    2.5521 O.2     1  UNL1       -0.2698
      7 C          -0.8936   -2.0837    1.4037 C.ar    1  UNL1        0.0785
      8 C          -0.4969   -3.2690    1.9893 C.ar    1  UNL1       -0.0461
      9 C          -1.3210   -4.3556    1.7816 C.ar    1  UNL1       -0.0608
     10 C          -2.4818   -4.2926    1.0361 C.ar    1  UNL1       -0.0583
     11 C          -2.8136   -3.0721    0.4812 C.ar    1  UNL1       -0.0192
     12 C          -2.0392   -1.9409    0.6450 C.ar    1  UNL1        0.1331
     13 O          -2.3946   -0.7234    0.0762 O.3     1  UNL1       -0.4866
     14 C          -3.5861   -0.6690   -0.6861 C.3     1  UNL1        0.1147
     15 C          -3.8507    0.6682   -1.2320 C.ar    1  UNL1       -0.0104
     16 C          -4.5873    1.6050   -0.5364 C.ar    1  UNL1       -0.0554
     17 C          -4.8467    2.8653   -1.0313 C.ar    1  UNL1       -0.0614
     18 C          -4.3542    3.1939   -2.2558 C.ar    1  UNL1       -0.0617
     19 C          -3.6137    2.2853   -2.9814 C.ar    1  UNL1       -0.0614
     20 C          -3.3653    1.0291   -2.4683 C.ar    1  UNL1       -0.0554
     21 C           1.6323    0.7259    0.8946 C.3     1  UNL1        0.0280
     22 C           1.6428    1.7548   -0.1545 C.3     1  UNL1       -0.0342
     23 C           3.0393    1.9909   -0.6944 C.3     1  UNL1       -0.0500
     24 C           3.8912    2.6070    0.3952 C.3     1  UNL1       -0.0376
     25 C           3.6250    1.8683    1.6771 C.3     1  UNL1        0.0065
     26 N           4.8608    1.7367    2.4133 N.3     1  UNL1       -0.3272
     27 C           3.0880    0.4932    1.3365 C.3     1  UNL1       -0.0190
     28 H           2.4937   -3.1072   -0.8463 H       1  UNL1        0.0247
     29 H           3.2478   -1.5447   -1.1334 H       1  UNL1        0.0247
     30 H           2.9418   -2.1881    0.5881 H       1  UNL1        0.0247
     31 H           0.4657   -2.2625   -0.3801 H       1  UNL1        0.0495
     32 H          -0.0196   -0.3572   -1.9605 H       1  UNL1        0.0247
     33 H           1.8144   -0.2530   -2.2016 H       1  UNL1        0.0247
     34 H           0.9306   -1.7347   -2.5178 H       1  UNL1        0.0247
     35 H           0.4089   -3.3339    2.5755 H       1  UNL1        0.0626
     36 H          -1.0840   -5.3381    2.2094 H       1  UNL1        0.0618
     37 H          -3.1240   -5.1594    0.8799 H       1  UNL1        0.0619
     38 H          -3.7318   -3.0046   -0.1136 H       1  UNL1        0.0654
     39 H          -4.4817   -0.9403   -0.0544 H       1  UNL1        0.0748
     40 H          -3.5648   -1.4565   -1.4828 H       1  UNL1        0.0748
     41 H          -4.9659    1.3153    0.4344 H       1  UNL1        0.0621
     42 H          -5.4277    3.5338   -0.4266 H       1  UNL1        0.0618
     43 H          -4.5429    4.1672   -2.6607 H       1  UNL1        0.0618
     44 H          -3.2361    2.5738   -3.9494 H       1  UNL1        0.0618
     45 H          -2.7864    0.2842   -3.0080 H       1  UNL1        0.0621
     46 H           1.1815    1.1767    1.8175 H       1  UNL1        0.0501
     47 H           0.8984    1.6225   -0.9636 H       1  UNL1        0.0283
     48 H           1.3589    2.7601    0.2877 H       1  UNL1        0.0283
     49 H           3.4934    1.1010   -1.1615 H       1  UNL1        0.0266
     50 H           3.0186    2.7559   -1.5219 H       1  UNL1        0.0266
     51 H           4.9562    2.6452    0.1261 H       1  UNL1        0.0280
     52 H           3.5466    3.6718    0.5296 H       1  UNL1        0.0280
     53 H           2.8700    2.3889    2.3126 H       1  UNL1        0.0459
     54 H           4.7010    1.6078    3.4386 H       1  UNL1        0.1185
     55 H           5.5512    2.4743    2.2024 H       1  UNL1        0.1185
     56 H           3.7159    0.0725    0.5600 H       1  UNL1        0.0298
     57 H           3.1085   -0.0914    2.2802 H       1  UNL1        0.0298
@<TRIPOS>BOND
     1     1     2    1
     2     2     3    1
     3     2     4    1
     4     4     5   am
     5     5     6    2
     6     5     7    1
     7     7     8   ar
     8     8     9   ar
     9     9    10   ar
    10    10    11   ar
    11    11    12   ar
    12    12    13    1
    13    13    14    1
    14    14    15    1
    15    15    16   ar
    16    16    17   ar
    17    17    18   ar
    18    18    19   ar
    19    19    20   ar
    20     4    21    1
    21    21    22    1
    22    22    23    1
    23    23    24    1
    24    24    25    1
    25    25    26    1
    26    25    27    1
    27    12     7   ar
    28    20    15   ar
    29    27    21    1
    30     1    28    1
    31     1    29    1
    32     1    30    1
    33     2    31    1
    34     3    32    1
    35     3    33    1
    36     3    34    1
    37     8    35    1
    38     9    36    1
    39    10    37    1
    40    11    38    1
    41    14    39    1
    42    14    40    1
    43    16    41    1
    44    17    42    1
    45    18    43    1
    46    19    44    1
    47    20    45    1
    48    21    46    1
    49    22    47    1
    50    22    48    1
    51    23    49    1
    52    23    50    1
    53    24    51    1
    54    24    52    1
    55    25    53    1
    56    26    54    1
    57    26    55    1
    58    27    56    1
    59    27    57    1
@<TRIPOS>MOLECULE
51324125
 100 106 0 0 0
SMALL
GASTEIGER

@<TRIPOS>ATOM
      1 C          -1.4559   -3.3965   -3.1674 C.3     1  UNL1        0.0788
      2 O          -2.0182   -3.8308   -1.9452 O.3     1  UNL1       -0.4944
      3 C          -2.9155   -3.0897   -1.2104 C.ar    1  UNL1        0.1302
      4 C          -4.2605   -3.2699   -1.4852 C.ar    1  UNL1        0.0367
      5 C          -4.7208   -4.2281   -2.5356 C.3     1  UNL1       -0.0326
      6 C          -5.1682   -2.5435   -0.7672 C.ar    1  UNL1        0.1682
      7 O          -6.5191   -2.7164   -1.0331 O.3     1  UNL1       -0.4911
      8 C          -7.2867   -3.6920   -0.3383 C.3     1  UNL1        0.0790
      9 C          -4.7348   -1.6450    0.2162 C.ar    1  UNL1        0.1675
     10 O          -5.7185   -0.9740    0.8742 O.3     1  UNL1       -0.4911
     11 C          -6.3188    0.2364    0.4732 C.3     1  UNL1        0.0790
     12 C          -3.4078   -1.4592    0.4957 C.ar    1  UNL1        0.0288
     13 C          -2.4937   -2.2010   -0.2374 C.ar    1  UNL1        0.0057
     14 C          -1.0215   -2.1243   -0.0278 C.3     1  UNL1        0.0035
     15 CA         -0.7652   -1.6657    1.4083 C.3     1  UNL1        0.1074
     16 C           0.6598   -1.5397    1.6955 C.2     1  UNL1        0.2378
     17 O           1.3387   -2.5770    1.8664 O.2     1  UNL1       -0.2735
     18 N           1.3257   -0.2917    1.7929 N.am    1  UNL1       -0.2774
     19 CA          0.5330    0.9180    1.8292 C.3     1  UNL1        0.1074
     20 C           0.8514    1.6437    0.5271 C.3     1  UNL1        0.0035
     21 C           2.3246    1.9386    0.6002 C.ar    1  UNL1        0.0057
     22 C           2.7276    3.1164    0.0073 C.ar    1  UNL1        0.1302
     23 O           1.8035    3.9544   -0.6311 O.3     1  UNL1       -0.4944
     24 C           1.5176    3.7814   -2.0242 C.3     1  UNL1        0.0788
     25 C           4.0434    3.5073    0.0218 C.ar    1  UNL1        0.0367
     26 C           4.4862    4.7934   -0.6266 C.3     1  UNL1       -0.0326
     27 C           4.9490    2.6841    0.6486 C.ar    1  UNL1        0.1682
     28 O           6.2768    3.0951    0.6542 O.3     1  UNL1       -0.4911
     29 C           6.8190    3.9006    1.6852 C.3     1  UNL1        0.0790
     30 C           4.5324    1.4986    1.2431 C.ar    1  UNL1        0.1675
     31 O           5.5086    0.7517    1.8426 O.3     1  UNL1       -0.4911
     32 C           6.3096   -0.2377    1.2413 C.3     1  UNL1        0.0790
     33 C           3.2122    1.0965    1.2334 C.ar    1  UNL1        0.0288
     34 C           2.7576   -0.1536    1.8548 C.3     1  UNL1        0.0747
     35 C           3.4457   -1.3593    1.3204 C.2     1  UNL1       -0.0587
     36 C           3.4263   -1.6969    0.0564 C.2     1  UNL1       -0.0565
     37 C           4.0947   -2.8688   -0.4634 C.ar    1  UNL1       -0.0253
     38 C           4.7914   -3.7300    0.3354 C.ar    1  UNL1       -0.0546
     39 C           5.4358   -4.8585   -0.1948 C.ar    1  UNL1       -0.0612
     40 C           5.3792   -5.1220   -1.5349 C.ar    1  UNL1       -0.0617
     41 C           4.6823   -4.2671   -2.3593 C.ar    1  UNL1       -0.0612
     42 C           4.0499   -3.1558   -1.8232 C.ar    1  UNL1       -0.0546
     43 C          -0.8948    0.7100    2.0499 C.2     1  UNL1        0.2378
     44 O          -1.5300    1.6698    2.6093 O.2     1  UNL1       -0.2735
     45 N          -1.5291   -0.4820    1.6660 N.am    1  UNL1       -0.2774
     46 C          -2.9657   -0.5387    1.5227 C.3     1  UNL1        0.0747
     47 C          -3.5358    0.8385    1.4243 C.2     1  UNL1       -0.0587
     48 C          -3.2238    1.6440    0.4278 C.2     1  UNL1       -0.0565
     49 C          -3.7485    2.9841    0.2881 C.ar    1  UNL1       -0.0253
     50 C          -4.6249    3.5661    1.1703 C.ar    1  UNL1       -0.0546
     51 C          -5.0988    4.8671    0.9830 C.ar    1  UNL1       -0.0612
     52 C          -4.6964    5.6027   -0.0980 C.ar    1  UNL1       -0.0617
     53 C          -3.8236    5.0443   -0.9911 C.ar    1  UNL1       -0.0612
     54 C          -3.3619    3.7503   -0.7903 C.ar    1  UNL1       -0.0546
     55 H          -2.1918   -3.3832   -3.9927 H       1  UNL1        0.0660
     56 H          -1.0151   -2.3878   -3.0923 H       1  UNL1        0.0660
     57 H          -0.6601   -4.1456   -3.4172 H       1  UNL1        0.0660
     58 H          -3.8758   -4.8676   -2.8635 H       1  UNL1        0.0280
     59 H          -5.0864   -3.5803   -3.3851 H       1  UNL1        0.0280
     60 H          -5.5784   -4.8435   -2.2032 H       1  UNL1        0.0280
     61 H          -7.7030   -3.1904    0.5675 H       1  UNL1        0.0660
     62 H          -8.1124   -4.0806   -0.9668 H       1  UNL1        0.0660
     63 H          -6.5701   -4.5050   -0.0470 H       1  UNL1        0.0660
     64 H          -5.7684    0.6355   -0.4113 H       1  UNL1        0.0660
     65 H          -6.4126    0.9401    1.3090 H       1  UNL1        0.0660
     66 H          -7.3645    0.0732    0.1066 H       1  UNL1        0.0660
     67 H          -0.5808   -1.4448   -0.7559 H       1  UNL1        0.0337
     68 H          -0.6227   -3.1532   -0.1084 H       1  UNL1        0.0337
     69 HA         -1.1740   -2.4725    2.0646 H       1  UNL1        0.0600
     70 HA          0.9733    1.5448    2.6596 H       1  UNL1        0.0600
     71 H           0.6249    0.9613   -0.2932 H       1  UNL1        0.0337
     72 H           0.2684    2.5670    0.5306 H       1  UNL1        0.0337
     73 H           1.3040    4.7738   -2.4297 H       1  UNL1        0.0660
     74 H           2.3693    3.2836   -2.5173 H       1  UNL1        0.0660
     75 H           0.6016    3.1543   -2.0701 H       1  UNL1        0.0660
     76 H           5.0198    4.5835   -1.5771 H       1  UNL1        0.0280
     77 H           5.1960    5.3463    0.0197 H       1  UNL1        0.0280
     78 H           3.6228    5.4558   -0.7944 H       1  UNL1        0.0280
     79 H           6.0256    4.1435    2.4221 H       1  UNL1        0.0660
     80 H           7.5887    3.2911    2.2016 H       1  UNL1        0.0660
     81 H           7.3242    4.7847    1.2736 H       1  UNL1        0.0660
     82 H           5.9824   -0.3871    0.1934 H       1  UNL1        0.0660
     83 H           7.3748    0.0852    1.1592 H       1  UNL1        0.0660
     84 H           6.2758   -1.2206    1.7622 H       1  UNL1        0.0660
     85 H           3.0058   -0.0734    2.9339 H       1  UNL1        0.0597
     86 H           3.9806   -1.9734    2.0204 H       1  UNL1        0.0594
     87 H           2.8630   -1.0302   -0.6054 H       1  UNL1        0.0621
     88 H           4.8801   -3.5893    1.4025 H       1  UNL1        0.0623
     89 H           5.9895   -5.5422    0.4480 H       1  UNL1        0.0618
     90 H           5.8908   -6.0112   -1.9311 H       1  UNL1        0.0618
     91 H           4.6602   -4.5097   -3.4178 H       1  UNL1        0.0618
     92 H           3.5050   -2.4855   -2.4603 H       1  UNL1        0.0623
     93 H          -3.3272   -0.9557    2.5062 H       1  UNL1        0.0597
     94 H          -4.2106    1.2040    2.1746 H       1  UNL1        0.0594
     95 H          -2.5259    1.2569   -0.3276 H       1  UNL1        0.0621
     96 H          -4.9711    3.0183    2.0434 H       1  UNL1        0.0623
     97 H          -5.7845    5.2764    1.7041 H       1  UNL1        0.0618
     98 H          -5.0567    6.6311   -0.2670 H       1  UNL1        0.0618
     99 H          -3.5050    5.6343   -1.8532 H       1  UNL1        0.0618
    100 H          -2.6730    3.3100   -1.4956 H       1  UNL1        0.0623
@<TRIPOS>BOND
     1     1     2    1
     2     2     3    1
     3     3     4   ar
     4     4     5    1
     5     4     6   ar
     6     6     7    1
     7     7     8    1
     8     6     9   ar
     9     9    10    1
    10    10    11    1
    11     9    12   ar
    12    12    13   ar
    13    13    14    1
    14    14    15    1
    15    15    16    1
    16    16    17    2
    17    16    18   am
    18    18    19    1
    19    19    20    1
    20    20    21    1
    21    21    22   ar
    22    22    23    1
    23    23    24    1
    24    22    25   ar
    25    25    26    1
    26    25    27   ar
    27    27    28    1
    28    28    29    1
    29    27    30   ar
    30    30    31    1
    31    31    32    1
    32    30    33   ar
    33    33    34    1
    34    34    35    1
    35    35    36    2
    36    36    37    1
    37    37    38   ar
    38    38    39   ar
    39    39    40   ar
    40    40    41   ar
    41    41    42   ar
    42    19    43    1
    43    43    44    2
    44    43    45   am
    45    45    46    1
    46    46    47    1
    47    47    48    2
    48    48    49    1
    49    49    50   ar
    50    50    51   ar
    51    51    52   ar
    52    52    53   ar
    53    53    54   ar
    54    13     3   ar
    55    45    15    1
    56    54    49   ar
    57    46    12    1
    58    34    18    1
    59    42    37   ar
    60    33    21   ar
    61     1    55    1
    62     1    56    1
    63     1    57    1
    64     5    58    1
    65     5    59    1
    66     5    60    1
    67     8    61    1
    68     8    62    1
    69     8    63    1
    70    11    64    1
    71    11    65    1
    72    11    66    1
    73    14    67    1
    74    14    68    1
    75    15    69    1
    76    19    70    1
    77    20    71    1
    78    20    72    1
    79    24    73    1
    80    24    74    1
    81    24    75    1
    82    26    76    1
    83    26    77    1
    84    26    78    1
    85    29    79    1
    86    29    80    1
    87    29    81    1
    88    32    82    1
    89    32    83    1
    90    32    84    1
    91    34    85    1
    92    35    86    1
    93    36    87    1
    94    38    88    1
    95    39    89    1
    96    40    90    1
    97    41    91    1
    98    42    92    1
    99    46    93    1
   100    47    94    1
   101    48    95    1
   102    50    96    1
   103    51    97    1
   104    52    98    1
   105    53    99    1
   106    54   100    1
@<TRIPOS>MOLECULE
51028007
 49 51 0 0 0
SMALL
GASTEIGER

@<TRIPOS>ATOM
      1 C          -6.0317    0.8295   -2.2742 C.3     1  UNL1       -0.0397
      2 C          -5.0704    0.4228   -1.2271 C.ar    1  UNL1       -0.0487
      3 C          -5.3248    0.7838    0.0965 C.ar    1  UNL1       -0.0585
      4 C          -4.4503    0.4180    1.0853 C.ar    1  UNL1       -0.0563
      5 C          -3.3251   -0.3034    0.7703 C.ar    1  UNL1       -0.0235
      6 C          -2.3685   -0.7092    1.7997 C.3     1  UNL1       -0.0198
      7 C          -1.2721    0.2931    2.0393 C.3     1  UNL1       -0.0586
      8 C          -3.1205   -1.0238    3.0986 C.3     1  UNL1       -0.0586
      9 C          -3.0706   -0.6623   -0.5385 C.ar    1  UNL1        0.0401
     10 N          -1.9159   -1.4114   -0.8830 N.am    1  UNL1       -0.2506
     11 C          -0.7097   -0.7337   -1.2033 C.2     1  UNL1        0.4099
     12 O          -0.7133    0.5156   -1.1674 O.2     1  UNL1       -0.2257
     13 O           0.4550   -1.3994   -1.5499 O.3     1  UNL1       -0.4113
     14 C           1.6369   -0.7684   -1.8635 C.ar    1  UNL1        0.1338
     15 C           1.9425   -0.3692   -3.1466 C.ar    1  UNL1       -0.0191
     16 C           3.1585    0.2535   -3.3361 C.ar    1  UNL1       -0.0577
     17 C           4.0553    0.4830   -2.3069 C.ar    1  UNL1       -0.0538
     18 C           3.7507    0.0841   -1.0233 C.ar    1  UNL1       -0.0144
     19 C           4.6441    0.2893    0.1159 C.ar    1  UNL1       -0.0178
     20 C           5.4844    1.3801    0.1829 C.ar    1  UNL1       -0.0540
     21 C           6.3262    1.5594    1.2750 C.ar    1  UNL1       -0.0612
     22 C           6.3226    0.6449    2.2953 C.ar    1  UNL1       -0.0617
     23 C           5.4928   -0.4528    2.2517 C.ar    1  UNL1       -0.0612
     24 C           4.6671   -0.6026    1.1517 C.ar    1  UNL1       -0.0540
     25 C           2.5250   -0.5458   -0.8208 C.ar    1  UNL1       -0.0115
     26 C          -3.9448   -0.3014   -1.5582 C.ar    1  UNL1       -0.0372
     27 H          -5.8690    1.8982   -2.5141 H       1  UNL1        0.0278
     28 H          -7.0413    0.6028   -1.9174 H       1  UNL1        0.0278
     29 H          -5.8465    0.2371   -3.1892 H       1  UNL1        0.0278
     30 H          -6.2214    1.3514    0.3031 H       1  UNL1        0.0620
     31 H          -4.6077    0.6757    2.1210 H       1  UNL1        0.0621
     32 H          -1.8954   -1.6612    1.4858 H       1  UNL1        0.0344
     33 H          -1.5220    1.3023    1.6553 H       1  UNL1        0.0235
     34 H          -0.3072   -0.0822    1.6458 H       1  UNL1        0.0235
     35 H          -1.1577    0.4077    3.1383 H       1  UNL1        0.0235
     36 H          -2.4430   -1.5921    3.7401 H       1  UNL1        0.0235
     37 H          -4.0340   -1.5555    2.7912 H       1  UNL1        0.0235
     38 H          -3.3806   -0.0556    3.5813 H       1  UNL1        0.0235
     39 H          -1.9737   -2.4456   -0.8957 H       1  UNL1        0.1582
     40 H           1.2642   -0.5358   -3.9628 H       1  UNL1        0.0654
     41 H           3.4421    0.5875   -4.3417 H       1  UNL1        0.0619
     42 H           4.9947    0.9716   -2.4950 H       1  UNL1        0.0624
     43 H           5.4569    2.0770   -0.6425 H       1  UNL1        0.0624
     44 H           6.9749    2.4180    1.3078 H       1  UNL1        0.0618
     45 H           6.9934    0.8090    3.1403 H       1  UNL1        0.0618
     46 H           5.4712   -1.1877    3.0440 H       1  UNL1        0.0618
     47 H           4.0147   -1.4620    1.1124 H       1  UNL1        0.0624
     48 H           2.2939   -0.8571    0.1981 H       1  UNL1        0.0660
     49 H          -3.7497   -0.5773   -2.5703 H       1  UNL1        0.0639
@<TRIPOS>BOND
     1     1     2    1
     2     2     3   ar
     3     3     4   ar
     4     4     5   ar
     5     5     6    1
     6     6     7    1
     7     6     8    1
     8     5     9   ar
     9     9    10    1
    10    10    11   am
    11    11    12    2
    12    11    13    1
    13    13    14    1
    14    14    15   ar
    15    15    16   ar
    16    16    17   ar
    17    17    18   ar
    18    18    19    1
    19    19    20   ar
    20    20    21   ar
    21    21    22   ar
    22    22    23   ar
    23    23    24   ar
    24    18    25   ar
    25     9    26   ar
    26    26     2   ar
    27    25    14   ar
    28    24    19   ar
    29     1    27    1
    30     1    28    1
    31     1    29    1
    32     3    30    1
    33     4    31    1
    34     6    32    1
    35     7    33    1
    36     7    34    1
    37     7    35    1
    38     8    36    1
    39     8    37    1
    40     8    38    1
    41    10    39    1
    42    15    40    1
    43    16    41    1
    44    17    42    1
    45    20    43    1
    46    21    44    1
    47    22    45    1
    48    23    46    1
    49    24    47    1
    50    25    48    1
    51    26    49    1
@<TRIPOS>MOLECULE
90645447
 28 30 0 0 0
SMALL
GASTEIGER

@<TRIPOS>ATOM
      1 F           0.5992    2.1058    1.5203 F       1  UNL1       -0.1659
      2 C           1.5080    1.9469    0.5356 C.3     1  UNL1        0.4180
      3 F           2.6041    2.7600    0.8769 F       1  UNL1       -0.1659
      4 F           1.0409    2.5231   -0.6608 F       1  UNL1       -0.1659
      5 C           2.0130    0.5841    0.3012 C.ar    1  UNL1        0.0625
      6 C           3.3853    0.2998    0.4255 C.ar    1  UNL1       -0.0495
      7 C           3.9220   -0.9425    0.1911 C.ar    1  UNL1       -0.0612
      8 C           3.0792   -1.9673   -0.1853 C.ar    1  UNL1       -0.0612
      9 C           1.7361   -1.7051   -0.3104 C.ar    1  UNL1       -0.0535
     10 C           1.1818   -0.4322   -0.0703 C.ar    1  UNL1       -0.0062
     11 C          -0.2521   -0.2370   -0.1904 C.ar    1  UNL1       -0.0166
     12 C          -0.8173   -0.2648   -1.4719 C.ar    1  UNL1       -0.0520
     13 C          -2.1704   -0.1221   -1.6793 C.ar    1  UNL1       -0.0357
     14 C          -3.0393    0.0568   -0.6193 C.ar    1  UNL1        0.0658
     15 N          -4.3682    0.2179   -0.5416 N.ar    1  UNL1       -0.2770
     16 N          -4.6890    0.3480    0.7289 N.ar    1  UNL1       -0.1812
     17 C          -3.5641    0.2723    1.4957 C.ar    1  UNL1        0.0569
     18 C          -2.4822    0.0849    0.6614 C.ar    1  UNL1        0.0200
     19 C          -1.1229   -0.0604    0.8495 C.ar    1  UNL1       -0.0433
     20 H           4.0236    1.1200    0.7216 H       1  UNL1        0.0623
     21 H           4.9840   -1.1277    0.2961 H       1  UNL1        0.0618
     22 H           3.4878   -2.9672   -0.3778 H       1  UNL1        0.0618
     23 H           1.0346   -2.4781   -0.6037 H       1  UNL1        0.0624
     24 H          -0.1818   -0.4016   -2.3280 H       1  UNL1        0.0624
     25 H          -2.6228   -0.1416   -2.6666 H       1  UNL1        0.0639
     26 H          -5.0566    0.2415   -1.3230 H       1  UNL1        0.1889
     27 H          -3.4702    0.3391    2.5639 H       1  UNL1        0.0854
     28 H          -0.7628   -0.0529    1.8607 H       1  UNL1        0.0631
@<TRIPOS>BOND
     1     1     2    1
     2     2     3    1
     3     2     4    1
     4     2     5    1
     5     5     6   ar
     6     6     7   ar
     7     7     8   ar
     8     8     9   ar
     9     9    10   ar
    10    10    11    1
    11    11    12   ar
    12    12    13   ar
    13    13    14   ar
    14    14    15   ar
    15    15    16   ar
    16    16    17   ar
    17    17    18   ar
    18    18    19   ar
    19    10     5   ar
    20    19    11   ar
    21    18    14   ar
    22     6    20    1
    23     7    21    1
    24     8    22    1
    25     9    23    1
    26    12    24    1
    27    13    25    1
    28    15    26    1
    29    17    27    1
    30    19    28    1
@<TRIPOS>MOLECULE
136229296
 27 29 0 0 0
SMALL
GASTEIGER

@<TRIPOS>ATOM
      1 C           5.8513    1.1657   -1.1215 C.3     1  UNL1        0.0138
      2 C           4.7288    0.4421   -0.4453 C.ar    1  UNL1        0.2147
      3 N           4.9015   -0.5210    0.4593 N.ar    1  UNL1       -0.1124
      4 N           3.7068   -0.9108    0.8218 N.ar    1  UNL1       -0.1065
      5 C           2.8031   -0.2100    0.1615 C.ar    1  UNL1        0.2601
      6 C           1.3734   -0.3962    0.3322 C.ar    1  UNL1        0.1388
      7 S           0.0630    0.4932   -0.5064 S.2     1  UNL1       -0.0586
      8 C          -1.2706   -0.4165    0.3438 C.ar    1  UNL1        0.1129
      9 C          -2.6961   -0.0876    0.0310 C.ar    1  UNL1        0.0100
     10 C          -3.0491    0.8777   -0.8762 C.ar    1  UNL1       -0.0519
     11 C          -4.4135    1.1222   -1.1096 C.ar    1  UNL1       -0.0584
     12 C          -5.4017    0.4207   -0.4539 C.ar    1  UNL1       -0.0264
     13 C          -5.0117   -0.5411    0.4502 C.ar    1  UNL1        0.1240
     14 F          -5.9651   -1.2427    1.1062 F       1  UNL1       -0.2055
     15 C          -3.6481   -0.7852    0.6832 C.ar    1  UNL1       -0.0168
     16 N          -0.6496   -1.1550    1.0388 N.ar    1  UNL1       -0.2047
     17 C           0.6536   -1.2557    1.1371 C.ar    1  UNL1        0.2329
     18 O           1.3848   -2.1492    1.9780 O.3     1  UNL1       -0.4915
     19 O           3.4452    0.6147   -0.6109 O.2     1  UNL1       -0.4198
     20 H           6.6431    0.4375   -1.3751 H       1  UNL1        0.0324
     21 H           6.2398    1.9378   -0.4255 H       1  UNL1        0.0324
     22 H           5.5107    1.6049   -2.0911 H       1  UNL1        0.0324
     23 H          -2.2769    1.4168   -1.3801 H       1  UNL1        0.0624
     24 H          -4.6963    1.8769   -1.8189 H       1  UNL1        0.0619
     25 H          -6.4564    0.6266   -0.6501 H       1  UNL1        0.0646
     26 H          -3.3719   -1.5415    1.3941 H       1  UNL1        0.0653
     27 H           1.6020   -1.8244    2.9275 H       1  UNL1        0.2938
@<TRIPOS>BOND
     1     1     2    1
     2     2     3   ar
     3     3     4   ar
     4     4     5   ar
     5     5     6    1
     6     6     7   ar
     7     7     8   ar
     8     8     9    1
     9     9    10   ar
    10    10    11   ar
    11    11    12   ar
    12    12    13   ar
    13    13    14    1
    14    13    15   ar
    15     8    16   ar
    16    16    17   ar
    17    17    18    1
    18     5    19   ar
    19    19     2   ar
    20    17     6   ar
    21    15     9   ar
    22     1    20    1
    23     1    21    1
    24     1    22    1
    25    10    23    1
    26    11    24    1
    27    12    25    1
    28    15    26    1
    29    18    27    1
@<TRIPOS>MOLECULE
134153462
 51 53 0 0 0
SMALL
GASTEIGER

@<TRIPOS>ATOM
      1 C          -1.3214    0.9255   -3.5497 C.3     1  UNL1        0.0790
      2 O          -1.9139    0.5433   -2.3317 O.3     1  UNL1       -0.4914
      3 C          -1.2214   -0.2001   -1.3900 C.ar    1  UNL1        0.1618
      4 C           0.0892   -0.6121   -1.5795 C.ar    1  UNL1       -0.0116
      5 C           0.7529   -1.3589   -0.6111 C.ar    1  UNL1       -0.0264
      6 C           2.1560   -1.7809   -0.8345 C.3     1  UNL1        0.0407
      7 N           3.1221   -0.8428   -0.3121 N.am    1  UNL1       -0.2840
      8 C           3.5774    0.2582   -1.1312 C.3     1  UNL1        0.0914
      9 C           4.7676   -0.1622   -1.9151 C.2     1  UNL1        0.2279
     10 N           5.3883    0.7558   -2.7927 N.am    1  UNL1       -0.3280
     11 O           5.2176   -1.3236   -1.7988 O.2     1  UNL1       -0.2743
     12 C           3.6192   -1.0062    0.9916 C.2     1  UNL1        0.2539
     13 O           3.2229   -1.9833    1.6763 O.2     1  UNL1       -0.2694
     14 C           4.5752   -0.1321    1.6544 C.ar    1  UNL1        0.0740
     15 C           5.8339    0.2128    1.4030 C.ar    1  UNL1       -0.0425
     16 C           6.4611    1.0776    2.2391 C.ar    1  UNL1       -0.0540
     17 C           5.7873    1.5580    3.2965 C.ar    1  UNL1       -0.0236
     18 S           4.1561    0.7290    3.0924 S.2     1  UNL1       -0.0921
     19 C           0.0810   -1.6809    0.5401 C.ar    1  UNL1       -0.0534
     20 C          -1.2433   -1.2737    0.7503 C.ar    1  UNL1       -0.0160
     21 C          -1.8836   -0.5314   -0.2268 C.ar    1  UNL1        0.1624
     22 O          -3.2091   -0.1160   -0.0301 O.3     1  UNL1       -0.4837
     23 C          -3.8950   -0.4411    1.1657 C.3     1  UNL1        0.1148
     24 C          -5.2742    0.0937    1.2059 C.ar    1  UNL1       -0.0102
     25 C          -6.3342   -0.6210    0.7038 C.ar    1  UNL1       -0.0526
     26 C          -7.6167   -0.1215    0.7508 C.ar    1  UNL1       -0.0261
     27 C          -7.8919    1.1189    1.3042 C.ar    1  UNL1        0.1234
     28 F          -9.1478    1.6076    1.3468 F       1  UNL1       -0.2055
     29 C          -6.8076    1.8204    1.8036 C.ar    1  UNL1       -0.0261
     30 C          -5.5429    1.3409    1.7640 C.ar    1  UNL1       -0.0526
     31 H          -0.3069    1.3402   -3.4058 H       1  UNL1        0.0660
     32 H          -1.9806    1.5861   -4.1350 H       1  UNL1        0.0660
     33 H          -1.1906    0.0000   -4.1636 H       1  UNL1        0.0660
     34 H           0.5459   -0.3170   -2.5136 H       1  UNL1        0.0658
     35 H           2.2581   -2.7883   -0.3681 H       1  UNL1        0.0514
     36 H           2.3236   -1.9679   -1.9365 H       1  UNL1        0.0514
     37 H           3.8097    1.1620   -0.5201 H       1  UNL1        0.0560
     38 H           2.7243    0.5823   -1.7843 H       1  UNL1        0.0560
     39 H           5.2899    0.6160   -3.8173 H       1  UNL1        0.1450
     40 H           5.9411    1.5687   -2.4590 H       1  UNL1        0.1450
     41 H           6.3531   -0.2209    0.5005 H       1  UNL1        0.0630
     42 H           7.5289    1.4137    2.0863 H       1  UNL1        0.0623
     43 H           6.0043    2.2376    4.1130 H       1  UNL1        0.0693
     44 H           0.5488   -2.2665    1.3271 H       1  UNL1        0.0622
     45 H          -1.7664   -1.5293    1.6570 H       1  UNL1        0.0655
     46 H          -3.2910   -0.1107    2.0294 H       1  UNL1        0.0748
     47 H          -3.9850   -1.5587    1.1925 H       1  UNL1        0.0748
     48 H          -6.1455   -1.6059    0.2602 H       1  UNL1        0.0622
     49 H          -8.4407   -0.6899    0.3539 H       1  UNL1        0.0646
     50 H          -7.0362    2.8019    2.2414 H       1  UNL1        0.0646
     51 H          -4.6898    1.8926    2.1567 H       1  UNL1        0.0622
@<TRIPOS>BOND
     1     1     2    1
     2     2     3    1
     3     3     4   ar
     4     4     5   ar
     5     5     6    1
     6     6     7    1
     7     7     8    1
     8     8     9    1
     9     9    10   am
    10     9    11    2
    11     7    12   am
    12    12    13    2
    13    12    14    1
    14    14    15   ar
    15    15    16   ar
    16    16    17   ar
    17    17    18   ar
    18     5    19   ar
    19    19    20   ar
    20    20    21   ar
    21    21    22    1
    22    22    23    1
    23    23    24    1
    24    24    25   ar
    25    25    26   ar
    26    26    27   ar
    27    27    28    1
    28    27    29   ar
    29    29    30   ar
    30    21     3   ar
    31    30    24   ar
    32    18    14   ar
    33     1    31    1
    34     1    32    1
    35     1    33    1
    36     4    34    1
    37     6    35    1
    38     6    36    1
    39     8    37    1
    40     8    38    1
    41    10    39    1
    42    10    40    1
    43    15    41    1
    44    16    42    1
    45    17    43    1
    46    19    44    1
    47    20    45    1
    48    23    46    1
    49    23    47    1
    50    25    48    1
    51    26    49    1
    52    29    50    1
    53    30    51    1
@<TRIPOS>MOLECULE
90645460
 31 33 0 0 0
SMALL
GASTEIGER

@<TRIPOS>ATOM
      1 C           0.1695   -2.2656   -0.8948 C.3     1  UNL1       -0.0391
      2 C           0.8969   -1.0937   -0.3841 C.ar    1  UNL1       -0.0407
      3 C           2.2364   -1.2388   -0.0866 C.ar    1  UNL1       -0.0328
      4 C           2.9709   -0.1781    0.3868 C.ar    1  UNL1        0.0660
      5 N           4.2538   -0.0723    0.7382 N.ar    1  UNL1       -0.2770
      6 N           4.5024    1.1561    1.1350 N.ar    1  UNL1       -0.1812
      7 C           3.3684    1.8662    1.0431 C.ar    1  UNL1        0.0569
      8 C           2.3689    1.0361    0.5659 C.ar    1  UNL1        0.0201
      9 C           1.0470    1.2268    0.2854 C.ar    1  UNL1       -0.0431
     10 C           0.3151    0.1423   -0.1937 C.ar    1  UNL1       -0.0137
     11 C          -1.0906    0.3387   -0.4847 C.ar    1  UNL1       -0.0060
     12 C          -1.4818    0.6785   -1.7571 C.ar    1  UNL1       -0.0535
     13 C          -2.8155    0.8625   -2.0595 C.ar    1  UNL1       -0.0612
     14 C          -3.7703    0.7043   -1.0757 C.ar    1  UNL1       -0.0612
     15 C          -3.4134    0.3641    0.2106 C.ar    1  UNL1       -0.0495
     16 C          -2.0480    0.1835    0.4888 C.ar    1  UNL1        0.0625
     17 C          -1.5973   -0.1723    1.8455 C.3     1  UNL1        0.4180
     18 F          -0.7406    0.7668    2.3841 F       1  UNL1       -0.1659
     19 F          -2.7221   -0.1716    2.6771 F       1  UNL1       -0.1659
     20 F          -1.0655   -1.4391    1.9087 F       1  UNL1       -0.1659
     21 H          -0.9229   -2.1220   -0.9341 H       1  UNL1        0.0278
     22 H           0.5091   -2.5288   -1.9165 H       1  UNL1        0.0278
     23 H           0.4237   -3.1231   -0.2114 H       1  UNL1        0.0278
     24 H           2.7376   -2.2020   -0.2227 H       1  UNL1        0.0642
     25 H           4.9458   -0.8428    0.7026 H       1  UNL1        0.1889
     26 H           3.1907    2.9132    1.2833 H       1  UNL1        0.0854
     27 H           0.6077    2.1978    0.4391 H       1  UNL1        0.0631
     28 H          -0.7589    0.8135   -2.5647 H       1  UNL1        0.0624
     29 H          -3.1594    1.1290   -3.0445 H       1  UNL1        0.0618
     30 H          -4.8249    0.8402   -1.2760 H       1  UNL1        0.0618
     31 H          -4.1328    0.2304    1.0119 H       1  UNL1        0.0623
@<TRIPOS>BOND
     1     1     2    1
     2     2     3   ar
     3     3     4   ar
     4     4     5   ar
     5     5     6   ar
     6     6     7   ar
     7     7     8   ar
     8     8     9   ar
     9     9    10   ar
    10    10    11    1
    11    11    12   ar
    12    12    13   ar
    13    13    14   ar
    14    14    15   ar
    15    15    16   ar
    16    16    17    1
    17    17    18    1
    18    17    19    1
    19    17    20    1
    20    10     2   ar
    21    16    11   ar
    22     8     4   ar
    23     1    21    1
    24     1    22    1
    25     1    23    1
    26     3    24    1
    27     5    25    1
    28     7    26    1
    29     9    27    1
    30    12    28    1
    31    13    29    1
    32    14    30    1
    33    15    31    1
@<TRIPOS>MOLECULE
51078693
 27 29 0 0 0
SMALL
GASTEIGER

@<TRIPOS>ATOM
      1 O           1.6255    3.1886   -1.0302 O.2     1  UNL1       -0.2445
      2 C           1.4872    1.9969   -0.6251 C.2     1  UNL1        0.3451
      3 O           0.2784    1.3748   -0.4467 O.3     1  UNL1       -0.4217
      4 C           0.4356    0.0738    0.0052 C.2     1  UNL1        0.1404
      5 C          -0.5404   -0.7816    0.2735 C.2     1  UNL1       -0.0115
      6 C          -1.9354   -0.4551    0.1237 C.ar    1  UNL1       -0.0215
      7 C          -2.8839   -0.7467    1.1104 C.ar    1  UNL1       -0.0545
      8 C          -4.2273   -0.4669    0.9393 C.ar    1  UNL1       -0.0612
      9 C          -4.6772    0.1178   -0.2256 C.ar    1  UNL1       -0.0617
     10 C          -3.7616    0.4113   -1.2075 C.ar    1  UNL1       -0.0612
     11 C          -2.4236    0.1287   -1.0288 C.ar    1  UNL1       -0.0545
     12 C           1.8760   -0.1367    0.1175 C.ar    1  UNL1        0.0314
     13 C           2.5241   -1.2719    0.5214 C.ar    1  UNL1       -0.0503
     14 C           3.9154   -1.2002    0.5312 C.ar    1  UNL1       -0.0610
     15 C           4.5878   -0.0352    0.1504 C.ar    1  UNL1       -0.0609
     16 C           3.8728    1.0707   -0.2443 C.ar    1  UNL1       -0.0471
     17 C           2.5161    1.0355   -0.2664 C.ar    1  UNL1        0.0700
     18 H          -0.2060   -1.7790    0.6228 H       1  UNL1        0.0660
     19 H          -2.5117   -1.2042    2.0235 H       1  UNL1        0.0623
     20 H          -4.9297   -0.7044    1.7204 H       1  UNL1        0.0618
     21 H          -5.7456    0.3393   -0.3536 H       1  UNL1        0.0618
     22 H          -4.1370    0.8726   -2.1164 H       1  UNL1        0.0618
     23 H          -1.7526    0.3786   -1.8470 H       1  UNL1        0.0623
     24 H           2.0370   -2.1897    0.8128 H       1  UNL1        0.0625
     25 H           4.5489   -2.0202    0.8282 H       1  UNL1        0.0618
     26 H           5.6815   -0.0075    0.1647 H       1  UNL1        0.0618
     27 H           4.3458    2.0109   -0.5541 H       1  UNL1        0.0626
@<TRIPOS>BOND
     1     1     2    2
     2     2     3    1
     3     3     4    1
     4     4     5    2
     5     5     6    1
     6     6     7   ar
     7     7     8   ar
     8     8     9   ar
     9     9    10   ar
    10    10    11   ar
    11     4    12    1
    12    12    13   ar
    13    13    14   ar
    14    14    15   ar
    15    15    16   ar
    16    16    17   ar
    17    17     2    1
    18    11     6   ar
    19    17    12   ar
    20     5    18    1
    21     7    19    1
    22     8    20    1
    23     9    21    1
    24    10    22    1
    25    11    23    1
    26    13    24    1
    27    14    25    1
    28    15    26    1
    29    16    27    1
@<TRIPOS>MOLECULE
122178102
 50 53 0 0 0
SMALL
GASTEIGER

@<TRIPOS>ATOM
      1 O          -5.2793   -2.1140    1.3031 O.2     1  UNL1       -0.2451
      2 C          -4.4418   -3.0380    1.2759 C.2     1  UNL1        0.3368
      3 O          -4.7931   -4.2875    1.7347 O.3     1  UNL1       -0.4771
      4 C          -3.1131   -2.7846    0.7632 C.ar    1  UNL1        0.0591
      5 C          -2.1923   -3.8082    0.7493 C.ar    1  UNL1       -0.0478
      6 C          -0.9374   -3.5638    0.2638 C.ar    1  UNL1       -0.0607
      7 C          -0.5874   -2.3007   -0.2109 C.ar    1  UNL1       -0.0570
      8 C          -1.4829   -1.2594   -0.2106 C.ar    1  UNL1       -0.0293
      9 C          -1.0823    0.0721   -0.7271 C.3     1  UNL1        0.0404
     10 N          -0.5416    0.9507    0.2771 N.am    1  UNL1       -0.2888
     11 C          -1.5023    1.7786    1.0109 C.3     1  UNL1        0.0404
     12 C          -1.7536    3.0844    0.3546 C.ar    1  UNL1       -0.0299
     13 C          -2.7158    3.2754   -0.6204 C.ar    1  UNL1       -0.0544
     14 C          -2.9484    4.5046   -1.2274 C.ar    1  UNL1       -0.0261
     15 C          -2.1766    5.5765   -0.8300 C.ar    1  UNL1        0.1234
     16 F          -2.3742    6.7929   -1.3983 F       1  UNL1       -0.2055
     17 C          -1.2031    5.4447    0.1381 C.ar    1  UNL1       -0.0261
     18 C          -1.0038    4.1917    0.7214 C.ar    1  UNL1       -0.0544
     19 C           0.8275    1.0851    0.5935 C.2     1  UNL1        0.2487
     20 O           1.2181    1.8709    1.5297 O.2     1  UNL1       -0.2699
     21 C           1.9302    0.3918   -0.0648 C.ar    1  UNL1        0.0556
     22 C           2.1826    0.6207   -1.3975 C.ar    1  UNL1        0.0404
     23 N           3.2224   -0.0002   -1.9650 N.ar    1  UNL1       -0.2542
     24 C           4.0107   -0.8300   -1.2640 C.ar    1  UNL1        0.0710
     25 C           5.0936   -1.4526   -1.8787 C.ar    1  UNL1       -0.0357
     26 C           5.9201   -2.2950   -1.1866 C.ar    1  UNL1       -0.0597
     27 C           5.6876   -2.5458    0.1572 C.ar    1  UNL1       -0.0611
     28 C           4.6247   -1.9440    0.7886 C.ar    1  UNL1       -0.0525
     29 C           3.8044   -1.0987    0.0758 C.ar    1  UNL1        0.0011
     30 C           2.7308   -0.4647    0.6811 C.ar    1  UNL1       -0.0390
     31 C          -2.7381   -1.5317    0.2824 C.ar    1  UNL1       -0.0431
     32 H          -5.7272   -4.4873    2.1275 H       1  UNL1        0.2954
     33 H          -2.4460   -4.8121    1.1198 H       1  UNL1        0.0626
     34 H          -0.1951   -4.3769    0.2476 H       1  UNL1        0.0618
     35 H           0.4159   -2.2072   -0.5694 H       1  UNL1        0.0621
     36 H          -2.0125    0.4885   -1.2102 H       1  UNL1        0.0514
     37 H          -0.3754   -0.0337   -1.5983 H       1  UNL1        0.0514
     38 H          -1.1566    1.9534    2.0525 H       1  UNL1        0.0514
     39 H          -2.4924    1.2705    1.1123 H       1  UNL1        0.0514
     40 H          -3.3307    2.4331   -0.9356 H       1  UNL1        0.0622
     41 H          -3.7219    4.6180   -1.9975 H       1  UNL1        0.0646
     42 H          -0.5686    6.2733    0.4785 H       1  UNL1        0.0646
     43 H          -0.2581    4.0792    1.4793 H       1  UNL1        0.0622
     44 H           1.5400    1.3084   -1.9871 H       1  UNL1        0.0837
     45 H           5.2658   -1.2442   -2.9457 H       1  UNL1        0.0639
     46 H           6.7771   -2.7902   -1.6564 H       1  UNL1        0.0618
     47 H           6.3697   -3.2250    0.6880 H       1  UNL1        0.0618
     48 H           4.4558   -2.1513    1.8545 H       1  UNL1        0.0624
     49 H           2.5680   -0.6707    1.7153 H       1  UNL1        0.0632
     50 H          -3.4934   -0.7468    0.3061 H       1  UNL1        0.0629
@<TRIPOS>BOND
     1     1     2    2
     2     2     3    1
     3     2     4    1
     4     4     5   ar
     5     5     6   ar
     6     6     7   ar
     7     7     8   ar
     8     8     9    1
     9     9    10    1
    10    10    11    1
    11    11    12    1
    12    12    13   ar
    13    13    14   ar
    14    14    15   ar
    15    15    16    1
    16    15    17   ar
    17    17    18   ar
    18    10    19   am
    19    19    20    2
    20    19    21    1
    21    21    22   ar
    22    22    23   ar
    23    23    24   ar
    24    24    25   ar
    25    25    26   ar
    26    26    27   ar
    27    27    28   ar
    28    28    29   ar
    29    29    30   ar
    30     8    31   ar
    31    31     4   ar
    32    18    12   ar
    33    30    21   ar
    34    29    24   ar
    35     3    32    1
    36     5    33    1
    37     6    34    1
    38     7    35    1
    39     9    36    1
    40     9    37    1
    41    11    38    1
    42    11    39    1
    43    13    40    1
    44    14    41    1
    45    17    42    1
    46    18    43    1
    47    22    44    1
    48    25    45    1
    49    26    46    1
    50    27    47    1
    51    28    48    1
    52    30    49    1
    53    31    50    1
@<TRIPOS>MOLECULE
51078696
 29 30 0 0 0
SMALL
GASTEIGER

@<TRIPOS>ATOM
      1 C           4.5112   -0.0749    0.6850 C.3     1  UNL1       -0.0617
      2 C           3.6816   -0.2607   -0.5849 C.3     1  UNL1       -0.0339
      3 C           2.3693    0.3850   -0.3204 C.2     1  UNL1       -0.0412
      4 C           1.2879   -0.3762   -0.3863 C.2     1  UNL1        0.1360
      5 O           1.2104   -1.7266   -0.6754 O.3     1  UNL1       -0.4220
      6 C          -0.0985   -2.1744   -0.6512 C.2     1  UNL1        0.3454
      7 O          -0.4504   -3.3547   -0.8773 O.2     1  UNL1       -0.2445
      8 C          -0.9202   -1.0151   -0.3199 C.ar    1  UNL1        0.0729
      9 C          -2.2872   -0.8705   -0.1603 C.ar    1  UNL1       -0.0355
     10 C          -3.2014   -2.0423   -0.3319 C.3     1  UNL1       -0.0389
     11 C          -2.7790    0.3809    0.1604 C.ar    1  UNL1       -0.0551
     12 C          -1.9779    1.4886    0.3285 C.ar    1  UNL1       -0.0495
     13 C          -2.5525    2.8314    0.6770 C.3     1  UNL1       -0.0397
     14 C          -0.6187    1.3190    0.1641 C.ar    1  UNL1       -0.0474
     15 C          -0.0973    0.0812   -0.1563 C.ar    1  UNL1        0.0315
     16 H           4.1563    0.8083    1.2572 H       1  UNL1        0.0233
     17 H           4.4567   -0.9939    1.3236 H       1  UNL1        0.0233
     18 H           5.5789    0.0994    0.4271 H       1  UNL1        0.0233
     19 H           4.2083    0.1998   -1.4418 H       1  UNL1        0.0306
     20 H           3.5814   -1.3357   -0.7889 H       1  UNL1        0.0306
     21 H           2.3474    1.4273   -0.0896 H       1  UNL1        0.0608
     22 H          -2.7390   -2.9840   -0.0463 H       1  UNL1        0.0278
     23 H          -3.5607   -2.0861   -1.3859 H       1  UNL1        0.0278
     24 H          -4.1067   -1.8965    0.3045 H       1  UNL1        0.0278
     25 H          -3.8535    0.5424    0.2964 H       1  UNL1        0.0623
     26 H          -2.3917    3.5373   -0.1547 H       1  UNL1        0.0278
     27 H          -3.6278    2.7018    0.8048 H       1  UNL1        0.0278
     28 H          -2.1441    3.1933    1.6453 H       1  UNL1        0.0278
     29 H           0.0172    2.1958    0.2970 H       1  UNL1        0.0627
@<TRIPOS>BOND
     1     1     2    1
     2     2     3    1
     3     3     4    2
     4     4     5    1
     5     5     6    1
     6     6     7    2
     7     6     8    1
     8     8     9   ar
     9     9    10    1
    10     9    11   ar
    11    11    12   ar
    12    12    13    1
    13    12    14   ar
    14    14    15   ar
    15    15     4    1
    16    15     8   ar
    17     1    16    1
    18     1    17    1
    19     1    18    1
    20     2    19    1
    21     2    20    1
    22     3    21    1
    23    10    22    1
    24    10    23    1
    25    10    24    1
    26    11    25    1
    27    13    26    1
    28    13    27    1
    29    13    28    1
    30    14    29    1
@<TRIPOS>MOLECULE
50254064
 48 48 0 0 0
SMALL
GASTEIGER

@<TRIPOS>ATOM
      1 C           5.6690   -1.4672    3.1102 C.3     1  UNL1        0.0788
      2 O           4.6102   -0.6914    3.6311 O.3     1  UNL1       -0.4951
      3 C           3.9608    0.1652    2.7316 C.ar    1  UNL1        0.1201
      4 C           4.3222    0.2589    1.4137 C.ar    1  UNL1       -0.0197
      5 C           3.6402    1.1271    0.5698 C.ar    1  UNL1       -0.0546
      6 C           2.5965    1.9204    0.9865 C.ar    1  UNL1       -0.0365
      7 C           1.9453    2.8003    0.0228 C.3     1  UNL1        0.0701
      8 C           0.7750    2.1780   -0.6566 C.2     1  UNL1        0.3117
      9 O           0.5091    1.0130   -0.2883 O.2     1  UNL1       -0.2505
     10 O           0.0232    2.7686   -1.5971 O.3     1  UNL1       -0.4602
     11 C          -1.0800    2.2266   -2.2598 C.3     1  UNL1        0.1109
     12 C          -0.7150    1.0102   -2.9788 C.2     1  UNL1       -0.0480
     13 C          -1.2032   -0.1829   -2.8286 C.2     1  UNL1       -0.0731
     14 C          -0.6806   -1.3250   -3.6802 C.3     1  UNL1       -0.0437
     15 C          -2.3000   -0.4522   -1.8468 C.3     1  UNL1       -0.0285
     16 C          -1.8417   -1.4704   -0.8756 C.3     1  UNL1       -0.0308
     17 C          -2.7185   -1.8741    0.2073 C.2     1  UNL1       -0.0850
     18 C          -3.9044   -1.5132    0.5890 C.2     1  UNL1       -0.0796
     19 C          -4.7282   -0.4877   -0.0725 C.3     1  UNL1       -0.0440
     20 C          -4.5584   -2.1485    1.8186 C.3     1  UNL1       -0.0440
     21 C           2.2466    1.8099    2.3264 C.ar    1  UNL1       -0.0546
     22 C           2.9082    0.9586    3.1734 C.ar    1  UNL1       -0.0197
     23 H           5.3094   -2.0968    2.2417 H       1  UNL1        0.0660
     24 H           6.3748   -0.7216    2.6361 H       1  UNL1        0.0660
     25 H           6.1815   -2.0990    3.8347 H       1  UNL1        0.0660
     26 H           5.1404   -0.3551    1.0645 H       1  UNL1        0.0654
     27 H           3.9469    1.1826   -0.4826 H       1  UNL1        0.0622
     28 H           1.6447    3.7406    0.5201 H       1  UNL1        0.0426
     29 H           2.6744    3.0516   -0.7798 H       1  UNL1        0.0426
     30 H          -1.3993    3.0278   -3.0151 H       1  UNL1        0.0743
     31 H          -1.9658    2.1540   -1.5968 H       1  UNL1        0.0743
     32 H           0.0863    1.1238   -3.7542 H       1  UNL1        0.0605
     33 H          -0.3053   -2.1501   -3.0828 H       1  UNL1        0.0274
     34 H           0.1493   -0.9613   -4.3163 H       1  UNL1        0.0274
     35 H          -1.5158   -1.5730   -4.3607 H       1  UNL1        0.0274
     36 H          -3.0839   -0.9919   -2.4927 H       1  UNL1        0.0313
     37 H          -2.7967    0.4233   -1.4640 H       1  UNL1        0.0313
     38 H          -0.8374   -1.2397   -0.4320 H       1  UNL1        0.0310
     39 H          -1.5713   -2.3895   -1.5258 H       1  UNL1        0.0310
     40 H          -2.2688   -2.6859    0.8652 H       1  UNL1        0.0572
     41 H          -4.8997   -0.6580   -1.1509 H       1  UNL1        0.0274
     42 H          -5.8015   -0.5369    0.3421 H       1  UNL1        0.0274
     43 H          -4.4503    0.5611    0.1751 H       1  UNL1        0.0274
     44 H          -3.8841   -2.8713    2.2846 H       1  UNL1        0.0274
     45 H          -5.5414   -2.5652    1.5800 H       1  UNL1        0.0274
     46 H          -4.7182   -1.2985    2.5276 H       1  UNL1        0.0274
     47 H           1.4296    2.4241    2.6687 H       1  UNL1        0.0622
     48 H           2.6256    0.8808    4.2151 H       1  UNL1        0.0654
@<TRIPOS>BOND
     1     1     2    1
     2     2     3    1
     3     3     4   ar
     4     4     5   ar
     5     5     6   ar
     6     6     7    1
     7     7     8    1
     8     8     9    2
     9     8    10    1
    10    10    11    1
    11    11    12    1
    12    12    13    2
    13    13    14    1
    14    13    15    1
    15    15    16    1
    16    16    17    1
    17    17    18    2
    18    18    19    1
    19    18    20    1
    20     6    21   ar
    21    21    22   ar
    22    22     3   ar
    23     1    23    1
    24     1    24    1
    25     1    25    1
    26     4    26    1
    27     5    27    1
    28     7    28    1
    29     7    29    1
    30    11    30    1
    31    11    31    1
    32    12    32    1
    33    14    33    1
    34    14    34    1
    35    14    35    1
    36    15    36    1
    37    15    37    1
    38    16    38    1
    39    16    39    1
    40    17    40    1
    41    19    41    1
    42    19    42    1
    43    19    43    1
    44    20    44    1
    45    20    45    1
    46    20    46    1
    47    21    47    1
    48    22    48    1
@<TRIPOS>MOLECULE
66600938
 42 44 0 0 0
SMALL
GASTEIGER

@<TRIPOS>ATOM
      1 O           5.2450   -2.9786    0.6618 O.2     1  UNL1       -0.2451
      2 C           4.2340   -3.0940    1.4160 C.2     1  UNL1        0.3368
      3 O           4.0916   -4.2653    2.1463 O.3     1  UNL1       -0.4771
      4 C           3.2590   -2.0193    1.5026 C.ar    1  UNL1        0.0589
      5 C           3.3629   -0.8405    0.7947 C.ar    1  UNL1       -0.0459
      6 C           2.4254    0.1630    0.8941 C.ar    1  UNL1       -0.0343
      7 C           1.3343    0.0047    1.7264 C.ar    1  UNL1        0.1088
      8 S           0.1142    1.1892    1.9521 S.O2    1  UNL1        0.0762
      9 O           0.7472    2.5704    1.9747 O.2     1  UNL1       -0.1497
     10 O          -0.5317    0.9639    3.3159 O.2     1  UNL1       -0.1497
     11 N          -1.1426    1.2355    0.8169 N.pl3   1  UNL1       -0.1801
     12 C          -1.9993    0.0879    0.6514 C.3     1  UNL1        0.0615
     13 C          -1.7547   -0.7078   -0.5574 C.ar    1  UNL1       -0.0283
     14 C          -0.8658   -1.7525   -0.6476 C.ar    1  UNL1       -0.0570
     15 C          -0.6969   -2.4710   -1.8199 C.ar    1  UNL1       -0.0615
     16 C          -1.4538   -2.1049   -2.9059 C.ar    1  UNL1       -0.0617
     17 C          -2.3513   -1.0592   -2.8345 C.ar    1  UNL1       -0.0615
     18 C          -2.5143   -0.3563   -1.6821 C.ar    1  UNL1       -0.0570
     19 C          -1.4443    2.3620    0.0099 C.ar    1  UNL1        0.1591
     20 N          -2.3446    3.2797    0.3908 N.ar    1  UNL1       -0.2373
     21 C          -2.6099    4.3668   -0.3903 C.ar    1  UNL1        0.0298
     22 C          -1.9759    4.5749   -1.5930 C.ar    1  UNL1       -0.0421
     23 C          -1.0493    3.6444   -1.9996 C.ar    1  UNL1       -0.0386
     24 C          -0.7991    2.5467   -1.1829 C.ar    1  UNL1        0.0823
     25 CL          0.4133    1.4339   -1.7675 Cl      1  UNL1       -0.0799
     26 C           1.2392   -1.1781    2.4305 C.ar    1  UNL1       -0.0343
     27 C           2.1720   -2.1775    2.3321 C.ar    1  UNL1       -0.0459
     28 H           4.4689   -5.1104    1.6968 H       1  UNL1        0.2954
     29 H           4.2306   -0.7313    0.1418 H       1  UNL1        0.0626
     30 H           2.5087    1.0850    0.3406 H       1  UNL1        0.0637
     31 H          -1.8276   -0.5871    1.5463 H       1  UNL1        0.0532
     32 H          -3.0809    0.3721    0.7522 H       1  UNL1        0.0532
     33 H          -0.2667   -2.0557    0.2007 H       1  UNL1        0.0621
     34 H          -0.0074   -3.2916   -1.9133 H       1  UNL1        0.0618
     35 H          -1.3436   -2.6508   -3.8423 H       1  UNL1        0.0618
     36 H          -2.9474   -0.7839   -3.7184 H       1  UNL1        0.0618
     37 H          -3.2252    0.4652   -1.6406 H       1  UNL1        0.0621
     38 H          -3.3392    5.0800   -0.0485 H       1  UNL1        0.0830
     39 H          -2.2007    5.4534   -2.2089 H       1  UNL1        0.0633
     40 H          -0.5356    3.7873   -2.9460 H       1  UNL1        0.0634
     41 H           0.3922   -1.3606    3.1088 H       1  UNL1        0.0637
     42 H           2.0694   -3.0896    2.8951 H       1  UNL1        0.0626
@<TRIPOS>BOND
     1     1     2    2
     2     2     3    1
     3     2     4    1
     4     4     5   ar
     5     5     6   ar
     6     6     7   ar
     7     7     8    1
     8     8     9    2
     9     8    10    2
    10     8    11    1
    11    11    12    1
    12    12    13    1
    13    13    14   ar
    14    14    15   ar
    15    15    16   ar
    16    16    17   ar
    17    17    18   ar
    18    11    19    1
    19    19    20   ar
    20    20    21   ar
    21    21    22   ar
    22    22    23   ar
    23    23    24   ar
    24    24    25    1
    25     7    26   ar
    26    26    27   ar
    27    27     4   ar
    28    18    13   ar
    29    24    19   ar
    30     3    28    1
    31     5    29    1
    32     6    30    1
    33    12    31    1
    34    12    32    1
    35    14    33    1
    36    15    34    1
    37    16    35    1
    38    17    36    1
    39    18    37    1
    40    21    38    1
    41    22    39    1
    42    23    40    1
    43    26    41    1
    44    27    42    1
@<TRIPOS>MOLECULE
51028006
 49 51 0 0 0
SMALL
GASTEIGER

@<TRIPOS>ATOM
      1 C          -4.7981   -3.5980   -1.6798 C.3     1  UNL1       -0.0397
      2 C          -4.5407   -2.2182   -1.1773 C.ar    1  UNL1       -0.0487
      3 C          -5.2807   -1.1728   -1.6702 C.ar    1  UNL1       -0.0585
      4 C          -5.0689    0.1149   -1.2273 C.ar    1  UNL1       -0.0563
      5 C          -4.0971    0.4248   -0.2600 C.ar    1  UNL1       -0.0235
      6 C          -3.9024    1.8007    0.2123 C.3     1  UNL1       -0.0198
      7 C          -4.6505    2.0497    1.5148 C.3     1  UNL1       -0.0586
      8 C          -2.5202    2.3344    0.1948 C.3     1  UNL1       -0.0586
      9 C          -3.3650   -0.6240    0.2239 C.ar    1  UNL1        0.0401
     10 N          -2.3503   -0.4441    1.1797 N.am    1  UNL1       -0.2506
     11 C          -1.0017   -0.3470    0.7712 C.2     1  UNL1        0.4099
     12 O          -0.6367   -0.4166   -0.4402 O.2     1  UNL1       -0.2257
     13 O           0.0402   -0.1646    1.6920 O.3     1  UNL1       -0.4113
     14 C           1.3640   -0.0724    1.2581 C.ar    1  UNL1        0.1333
     15 C           2.1644   -1.1880    1.1298 C.ar    1  UNL1       -0.0186
     16 C           3.4611   -1.0572    0.7001 C.ar    1  UNL1       -0.0506
     17 C           4.0166    0.1651    0.3824 C.ar    1  UNL1       -0.0177
     18 C           5.3957    0.2421   -0.0674 C.ar    1  UNL1       -0.0179
     19 C           5.8483    1.1950   -0.9490 C.ar    1  UNL1       -0.0540
     20 C           7.1697    1.2155   -1.3375 C.ar    1  UNL1       -0.0612
     21 C           8.0695    0.2748   -0.8465 C.ar    1  UNL1       -0.0617
     22 C           7.6406   -0.6864    0.0350 C.ar    1  UNL1       -0.0612
     23 C           6.3111   -0.6787    0.4035 C.ar    1  UNL1       -0.0540
     24 C           3.2357    1.2729    0.5052 C.ar    1  UNL1       -0.0506
     25 C           1.9324    1.1515    0.9360 C.ar    1  UNL1       -0.0186
     26 C          -3.5922   -1.9347   -0.2373 C.ar    1  UNL1       -0.0372
     27 H          -4.6180   -3.6910   -2.7657 H       1  UNL1        0.0278
     28 H          -4.1759   -4.3181   -1.0839 H       1  UNL1        0.0278
     29 H          -5.8753   -3.8844   -1.5085 H       1  UNL1        0.0278
     30 H          -6.0397   -1.3833   -2.4196 H       1  UNL1        0.0620
     31 H          -5.6455    0.9447   -1.6081 H       1  UNL1        0.0621
     32 H          -4.4820    2.4463   -0.5332 H       1  UNL1        0.0344
     33 H          -5.4895    1.3168    1.5390 H       1  UNL1        0.0235
     34 H          -3.9996    1.8928    2.3988 H       1  UNL1        0.0235
     35 H          -5.1110    3.0585    1.5396 H       1  UNL1        0.0235
     36 H          -1.9963    2.2827    1.1711 H       1  UNL1        0.0235
     37 H          -1.9794    1.9433   -0.6630 H       1  UNL1        0.0235
     38 H          -2.5919    3.4562    0.0118 H       1  UNL1        0.0235
     39 H          -2.5847   -0.3822    2.1819 H       1  UNL1        0.1582
     40 H           1.7460   -2.1759    1.3769 H       1  UNL1        0.0654
     41 H           4.0465   -1.9787    0.6184 H       1  UNL1        0.0625
     42 H           5.1262    1.9116   -1.3127 H       1  UNL1        0.0624
     43 H           7.4944    1.9794   -2.0334 H       1  UNL1        0.0618
     44 H           9.1045    0.2959   -1.1549 H       1  UNL1        0.0618
     45 H           8.3374   -1.4198    0.4193 H       1  UNL1        0.0618
     46 H           6.0039   -1.4624    1.1102 H       1  UNL1        0.0624
     47 H           3.5891    2.2586    0.2793 H       1  UNL1        0.0625
     48 H           1.3028    2.0303    1.0368 H       1  UNL1        0.0654
     49 H          -3.0064   -2.7601    0.1532 H       1  UNL1        0.0639
@<TRIPOS>BOND
     1     1     2    1
     2     2     3   ar
     3     3     4   ar
     4     4     5   ar
     5     5     6    1
     6     6     7    1
     7     6     8    1
     8     5     9   ar
     9     9    10    1
    10    10    11   am
    11    11    12    2
    12    11    13    1
    13    13    14    1
    14    14    15   ar
    15    15    16   ar
    16    16    17   ar
    17    17    18    1
    18    18    19   ar
    19    19    20   ar
    20    20    21   ar
    21    21    22   ar
    22    22    23   ar
    23    17    24   ar
    24    24    25   ar
    25     9    26   ar
    26    26     2   ar
    27    25    14   ar
    28    23    18   ar
    29     1    27    1
    30     1    28    1
    31     1    29    1
    32     3    30    1
    33     4    31    1
    34     6    32    1
    35     7    33    1
    36     7    34    1
    37     7    35    1
    38     8    36    1
    39     8    37    1
    40     8    38    1
    41    10    39    1
    42    15    40    1
    43    16    41    1
    44    19    42    1
    45    20    43    1
    46    21    44    1
    47    22    45    1
    48    23    46    1
    49    24    47    1
    50    25    48    1
    51    26    49    1
@<TRIPOS>MOLECULE
CHEMBL4587626
 53 56 0 0 0
SMALL
GASTEIGER

@<TRIPOS>ATOM
      1 C          -0.1289    1.9487    2.7079 C.3     1  UNL1       -0.0422
      2 C           0.0724    1.2848    1.3627 C.3     1  UNL1        0.0490
      3 C          -0.3832    2.1371    0.2535 C.ar    1  UNL1       -0.0271
      4 C          -0.3111    1.8307   -1.0824 C.ar    1  UNL1       -0.0541
      5 C          -0.7706    2.6846   -2.0727 C.ar    1  UNL1       -0.0261
      6 C          -1.3308    3.9026   -1.7733 C.ar    1  UNL1        0.1234
      7 F          -1.7894    4.7595   -2.7260 F       1  UNL1       -0.2055
      8 C          -1.4171    4.2409   -0.4196 C.ar    1  UNL1       -0.0261
      9 C          -0.9589    3.3869    0.5557 C.ar    1  UNL1       -0.0541
     10 N          -0.4909   -0.0638    1.3666 N.am    1  UNL1       -0.2864
     11 C          -1.8868   -0.3015    1.6063 C.3     1  UNL1        0.0406
     12 C          -2.7448   -0.5494    0.4604 C.ar    1  UNL1       -0.0292
     13 C          -3.3135    0.4481   -0.2939 C.ar    1  UNL1       -0.0557
     14 C          -4.1575    0.1489   -1.3706 C.ar    1  UNL1       -0.0423
     15 C          -4.4499   -1.1328   -1.7116 C.ar    1  UNL1        0.0549
     16 CL         -5.5146   -1.5064   -3.0685 Cl      1  UNL1       -0.0827
     17 C          -3.9002   -2.1530   -0.9788 C.ar    1  UNL1        0.0774
     18 C          -4.2177   -3.5235   -1.3277 C.2     1  UNL1        0.3382
     19 O          -4.9658   -3.7628   -2.2919 O.2     1  UNL1       -0.2451
     20 O          -3.6945   -4.5625   -0.5936 O.3     1  UNL1       -0.4771
     21 C          -3.0537   -1.8590    0.0985 C.ar    1  UNL1       -0.0417
     22 C           0.3793   -1.1973    1.1920 C.2     1  UNL1        0.2489
     23 O          -0.0937   -2.3558    1.1966 O.2     1  UNL1       -0.2699
     24 C           1.8255   -1.0669    1.0036 C.ar    1  UNL1        0.0556
     25 C           2.6017   -0.6530    2.0635 C.ar    1  UNL1        0.0404
     26 N           3.9291   -0.5389    1.8990 N.ar    1  UNL1       -0.2542
     27 C           4.5435   -0.8102    0.7406 C.ar    1  UNL1        0.0710
     28 C           5.9187   -0.6839    0.5838 C.ar    1  UNL1       -0.0357
     29 C           6.5320   -0.9690   -0.6330 C.ar    1  UNL1       -0.0597
     30 C           5.8027   -1.3893   -1.7361 C.ar    1  UNL1       -0.0611
     31 C           4.4356   -1.5163   -1.5844 C.ar    1  UNL1       -0.0525
     32 C           3.8328   -1.2340   -0.3823 C.ar    1  UNL1        0.0011
     33 C           2.4534   -1.3466   -0.1878 C.ar    1  UNL1       -0.0390
     34 H          -1.2025    2.0955    2.9357 H       1  UNL1        0.0251
     35 H           0.2605    1.2747    3.5193 H       1  UNL1        0.0251
     36 H           0.3568    2.9364    2.7768 H       1  UNL1        0.0251
     37 H           1.1780    1.1596    1.2232 H       1  UNL1        0.0548
     38 H           0.1320    0.8586   -1.3481 H       1  UNL1        0.0622
     39 H          -0.6938    2.4030   -3.1092 H       1  UNL1        0.0646
     40 H          -1.8615    5.2051   -0.1945 H       1  UNL1        0.0646
     41 H          -1.0558    3.6911    1.6016 H       1  UNL1        0.0622
     42 H          -1.9281   -1.1955    2.2970 H       1  UNL1        0.0514
     43 H          -2.3481    0.5303    2.1924 H       1  UNL1        0.0514
     44 H          -3.1108    1.4665   -0.0452 H       1  UNL1        0.0621
     45 H          -4.6009    0.9395   -1.9561 H       1  UNL1        0.0632
     46 H          -3.5539   -5.4905   -0.9720 H       1  UNL1        0.2954
     47 H          -2.6833   -2.7315    0.6148 H       1  UNL1        0.0629
     48 H           2.1806   -0.4101    3.0368 H       1  UNL1        0.0837
     49 H           6.4974   -0.3561    1.4401 H       1  UNL1        0.0639
     50 H           7.6076   -0.8598   -0.7262 H       1  UNL1        0.0618
     51 H           6.3388   -1.5915   -2.6503 H       1  UNL1        0.0618
     52 H           3.8510   -1.8448   -2.4377 H       1  UNL1        0.0624
     53 H           1.8826   -1.6776   -1.0550 H       1  UNL1        0.0632
@<TRIPOS>BOND
     1     1     2    1
     2     2     3    1
     3     3     4   ar
     4     4     5   ar
     5     5     6   ar
     6     6     7    1
     7     6     8   ar
     8     8     9   ar
     9     2    10    1
    10    10    11    1
    11    11    12    1
    12    12    13   ar
    13    13    14   ar
    14    14    15   ar
    15    15    16    1
    16    15    17   ar
    17    17    18    1
    18    18    19    2
    19    18    20    1
    20    17    21   ar
    21    10    22   am
    22    22    23    2
    23    22    24    1
    24    24    25   ar
    25    25    26   ar
    26    26    27   ar
    27    27    28   ar
    28    28    29   ar
    29    29    30   ar
    30    30    31   ar
    31    31    32   ar
    32    32    33   ar
    33     9     3   ar
    34    21    12   ar
    35    33    24   ar
    36    32    27   ar
    37     1    34    1
    38     1    35    1
    39     1    36    1
    40     2    37    1
    41     4    38    1
    42     5    39    1
    43     8    40    1
    44     9    41    1
    45    11    42    1
    46    11    43    1
    47    13    44    1
    48    14    45    1
    49    20    46    1
    50    21    47    1
    51    25    48    1
    52    28    49    1
    53    29    50    1
    54    30    51    1
    55    31    52    1
    56    33    53    1
@<TRIPOS>MOLECULE
50342152
 51 53 0 0 0
SMALL
GASTEIGER

@<TRIPOS>ATOM
      1 C           1.1612    1.8089    2.8085 C.3     1  UNL1       -0.0422
      2 C           1.0854    1.3376    1.3875 C.3     1  UNL1        0.0487
      3 C           0.2334    2.2636    0.6149 C.ar    1  UNL1       -0.0271
      4 C          -0.1582    1.9624   -0.6739 C.ar    1  UNL1       -0.0541
      5 C          -0.9419    2.8560   -1.3687 C.ar    1  UNL1       -0.0261
      6 C          -1.3484    4.0639   -0.7914 C.ar    1  UNL1        0.1234
      7 F          -2.1146    4.9357   -1.4726 F       1  UNL1       -0.2055
      8 C          -0.9558    4.3562    0.4888 C.ar    1  UNL1       -0.0261
      9 C          -0.1726    3.4444    1.1591 C.ar    1  UNL1       -0.0541
     10 N           0.5164   -0.0182    1.2780 N.am    1  UNL1       -0.2901
     11 C          -0.7338   -0.3657    1.8849 C.3     1  UNL1        0.0403
     12 C          -1.9459   -0.1367    1.0859 C.ar    1  UNL1       -0.0293
     13 C          -2.7092    1.0305    1.2159 C.ar    1  UNL1       -0.0570
     14 C          -3.8448    1.2679    0.4808 C.ar    1  UNL1       -0.0607
     15 C          -4.2831    0.3405   -0.4335 C.ar    1  UNL1       -0.0478
     16 C          -3.5581   -0.8177   -0.5870 C.ar    1  UNL1        0.0591
     17 C          -3.9984   -1.8076   -1.5413 C.2     1  UNL1        0.3368
     18 O          -3.3435   -2.8657   -1.6873 O.2     1  UNL1       -0.2451
     19 O          -5.1280   -1.6612   -2.3279 O.3     1  UNL1       -0.4771
     20 C          -2.4016   -1.0473    0.1690 C.ar    1  UNL1       -0.0431
     21 C           1.2423   -1.0255    0.5938 C.2     1  UNL1        0.2207
     22 O           0.7738   -2.1756    0.5076 O.2     1  UNL1       -0.2752
     23 C           2.5426   -0.7200   -0.0133 C.3     1  UNL1        0.0494
     24 C           3.1536   -1.8969   -0.6860 C.ar    1  UNL1       -0.0372
     25 C           3.9914   -2.7797   -0.0315 C.ar    1  UNL1       -0.0580
     26 C           4.5499   -3.8702   -0.6782 C.ar    1  UNL1       -0.0601
     27 C           4.2911   -4.1202   -2.0080 C.ar    1  UNL1       -0.0434
     28 C           3.4564   -3.2463   -2.6723 C.ar    1  UNL1        0.0412
     29 CL          3.1285   -3.5703   -4.3730 Cl      1  UNL1       -0.0835
     30 C           2.9041   -2.1632   -2.0226 C.ar    1  UNL1       -0.0397
     31 H           1.7554    1.1134    3.4518 H       1  UNL1        0.0251
     32 H           1.7483    2.7502    2.8180 H       1  UNL1        0.0251
     33 H           0.1755    2.0298    3.2413 H       1  UNL1        0.0251
     34 H           2.1176    1.3156    0.9250 H       1  UNL1        0.0548
     35 H           0.1598    1.0302   -1.1098 H       1  UNL1        0.0622
     36 H          -1.2785    2.6687   -2.3864 H       1  UNL1        0.0646
     37 H          -1.2500    5.2718    0.9587 H       1  UNL1        0.0646
     38 H           0.1149    3.7121    2.1581 H       1  UNL1        0.0622
     39 H          -0.6594   -1.4567    2.1823 H       1  UNL1        0.0514
     40 H          -0.8760    0.1520    2.8716 H       1  UNL1        0.0514
     41 H          -2.3367    1.7355    1.9498 H       1  UNL1        0.0621
     42 H          -4.4175    2.1843    0.6031 H       1  UNL1        0.0618
     43 H          -5.1824    0.5064   -1.0294 H       1  UNL1        0.0626
     44 H          -5.6007   -2.4992   -2.6709 H       1  UNL1        0.2954
     45 H          -1.8683   -1.9690    0.0189 H       1  UNL1        0.0629
     46 H           3.2723   -0.3811    0.7508 H       1  UNL1        0.0407
     47 H           2.3624    0.0551   -0.8022 H       1  UNL1        0.0407
     48 H           4.1989   -2.5863    1.0195 H       1  UNL1        0.0620
     49 H           5.2082   -4.5631   -0.1622 H       1  UNL1        0.0618
     50 H           4.7132   -4.9655   -2.5421 H       1  UNL1        0.0632
     51 H           2.2510   -1.4839   -2.5520 H       1  UNL1        0.0635
@<TRIPOS>BOND
     1     1     2    1
     2     2     3    1
     3     3     4   ar
     4     4     5   ar
     5     5     6   ar
     6     6     7    1
     7     6     8   ar
     8     8     9   ar
     9     2    10    1
    10    10    11    1
    11    11    12    1
    12    12    13   ar
    13    13    14   ar
    14    14    15   ar
    15    15    16   ar
    16    16    17    1
    17    17    18    2
    18    17    19    1
    19    16    20   ar
    20    10    21   am
    21    21    22    2
    22    21    23    1
    23    23    24    1
    24    24    25   ar
    25    25    26   ar
    26    26    27   ar
    27    27    28   ar
    28    28    29    1
    29    28    30   ar
    30     9     3   ar
    31    20    12   ar
    32    30    24   ar
    33     1    31    1
    34     1    32    1
    35     1    33    1
    36     2    34    1
    37     4    35    1
    38     5    36    1
    39     8    37    1
    40     9    38    1
    41    11    39    1
    42    11    40    1
    43    13    41    1
    44    14    42    1
    45    15    43    1
    46    19    44    1
    47    20    45    1
    48    23    46    1
    49    23    47    1
    50    25    48    1
    51    26    49    1
    52    27    50    1
    53    30    51    1
@<TRIPOS>MOLECULE
122178105
 56 59 0 0 0
SMALL
GASTEIGER

@<TRIPOS>ATOM
      1 C          -0.1756    1.1282   -3.5338 C.3     1  UNL1       -0.0396
      2 C          -0.9397    0.9453   -2.2154 C.3     1  UNL1        0.0576
      3 C          -1.9543   -0.1344   -2.4297 C.3     1  UNL1       -0.0396
      4 C          -1.6050    2.2613   -2.0126 C.ar    1  UNL1       -0.0243
      5 C          -3.0012    2.3575   -2.0416 C.ar    1  UNL1       -0.0538
      6 C          -3.5908    3.5803   -1.9012 C.ar    1  UNL1       -0.0261
      7 C          -2.8204    4.6918   -1.7347 C.ar    1  UNL1        0.1234
      8 F          -3.3755    5.9373   -1.5905 F       1  UNL1       -0.2055
      9 C          -1.4553    4.6043   -1.7059 C.ar    1  UNL1       -0.0261
     10 C          -0.8516    3.3870   -1.8458 C.ar    1  UNL1       -0.0538
     11 N           0.0011    0.6277   -1.1576 N.am    1  UNL1       -0.2839
     12 C           0.0420    1.2183    0.1409 C.3     1  UNL1        0.0409
     13 C          -0.9151    0.6369    1.1318 C.ar    1  UNL1       -0.0293
     14 C          -2.1368    1.2484    1.2828 C.ar    1  UNL1       -0.0570
     15 C          -3.0762    0.7837    2.1601 C.ar    1  UNL1       -0.0607
     16 C          -2.7617   -0.3327    2.9032 C.ar    1  UNL1       -0.0478
     17 C          -1.5517   -0.9617    2.7740 C.ar    1  UNL1        0.0591
     18 C          -1.2661   -2.1463    3.5905 C.2     1  UNL1        0.3368
     19 O          -2.1443   -2.5356    4.3914 O.2     1  UNL1       -0.2451
     20 O          -0.0823   -2.8538    3.5225 O.3     1  UNL1       -0.4771
     21 C          -0.6270   -0.4660    1.8790 C.ar    1  UNL1       -0.0431
     22 C           0.9370   -0.4374   -1.4363 C.2     1  UNL1        0.2491
     23 O           0.8161   -1.0046   -2.5726 O.2     1  UNL1       -0.2699
     24 C           1.9812   -0.9130   -0.5731 C.ar    1  UNL1        0.0556
     25 C           3.0565   -0.1263   -0.2137 C.ar    1  UNL1        0.0404
     26 N           4.0677   -0.5471    0.5759 N.ar    1  UNL1       -0.2542
     27 C           4.0113   -1.8205    1.0352 C.ar    1  UNL1        0.0710
     28 C           5.0343   -2.2761    1.8428 C.ar    1  UNL1       -0.0357
     29 C           4.9823   -3.5689    2.3099 C.ar    1  UNL1       -0.0597
     30 C           3.9384   -4.4089    1.9897 C.ar    1  UNL1       -0.0611
     31 C           2.9320   -3.9562    1.1937 C.ar    1  UNL1       -0.0525
     32 C           2.9677   -2.6578    0.7144 C.ar    1  UNL1        0.0011
     33 C           1.9211   -2.2276   -0.1000 C.ar    1  UNL1       -0.0390
     34 H           0.9002    1.1929   -3.2809 H       1  UNL1        0.0254
     35 H          -0.5066    2.0415   -4.0822 H       1  UNL1        0.0254
     36 H          -0.3105    0.2215   -4.1571 H       1  UNL1        0.0254
     37 H          -2.5635    0.1408   -3.3304 H       1  UNL1        0.0254
     38 H          -1.4727   -1.0879   -2.7033 H       1  UNL1        0.0254
     39 H          -2.6718   -0.2505   -1.5909 H       1  UNL1        0.0254
     40 H          -3.5852    1.4459   -2.1764 H       1  UNL1        0.0622
     41 H          -4.6681    3.6684   -1.9219 H       1  UNL1        0.0646
     42 H          -0.8742    5.5303   -1.5691 H       1  UNL1        0.0646
     43 H           0.2163    3.3255   -1.8458 H       1  UNL1        0.0622
     44 H           1.0704    1.0327    0.5747 H       1  UNL1        0.0514
     45 H          -0.0554    2.3195    0.1793 H       1  UNL1        0.0514
     46 H          -2.4046    2.1527    0.7154 H       1  UNL1        0.0621
     47 H          -4.0543    1.2714    2.2823 H       1  UNL1        0.0618
     48 H          -3.5088   -0.7102    3.6063 H       1  UNL1        0.0626
     49 H          -0.0016   -3.8390    3.7874 H       1  UNL1        0.2954
     50 H           0.3218   -0.9584    1.7962 H       1  UNL1        0.0629
     51 H           3.0583    0.8933   -0.6267 H       1  UNL1        0.0837
     52 H           5.8705   -1.6097    2.1030 H       1  UNL1        0.0639
     53 H           5.7930   -3.9176    2.9455 H       1  UNL1        0.0618
     54 H           3.9007   -5.4435    2.3654 H       1  UNL1        0.0618
     55 H           2.0710   -4.5775    0.9022 H       1  UNL1        0.0624
     56 H           1.1168   -2.8753   -0.3465 H       1  UNL1        0.0632
@<TRIPOS>BOND
     1     1     2    1
     2     2     3    1
     3     2     4    1
     4     4     5   ar
     5     5     6   ar
     6     6     7   ar
     7     7     8    1
     8     7     9   ar
     9     9    10   ar
    10     2    11    1
    11    11    12    1
    12    12    13    1
    13    13    14   ar
    14    14    15   ar
    15    15    16   ar
    16    16    17   ar
    17    17    18    1
    18    18    19    2
    19    18    20    1
    20    17    21   ar
    21    11    22   am
    22    22    23    2
    23    22    24    1
    24    24    25   ar
    25    25    26   ar
    26    26    27   ar
    27    27    28   ar
    28    28    29   ar
    29    29    30   ar
    30    30    31   ar
    31    31    32   ar
    32    32    33   ar
    33    10     4   ar
    34    21    13   ar
    35    33    24   ar
    36    32    27   ar
    37     1    34    1
    38     1    35    1
    39     1    36    1
    40     3    37    1
    41     3    38    1
    42     3    39    1
    43     5    40    1
    44     6    41    1
    45     9    42    1
    46    10    43    1
    47    12    44    1
    48    12    45    1
    49    14    46    1
    50    15    47    1
    51    16    48    1
    52    20    49    1
    53    21    50    1
    54    25    51    1
    55    28    52    1
    56    29    53    1
    57    30    54    1
    58    31    55    1
    59    33    56    1
@<TRIPOS>MOLECULE
343236
 56 59 0 0 0
SMALL
GASTEIGER

@<TRIPOS>ATOM
      1 C          -7.7278    2.0338   -0.3664 C.3     1  UNL1       -0.0587
      2 C          -6.3592    2.4894    0.0921 C.3     1  UNL1       -0.0215
      3 C          -6.5124    3.0921    1.4733 C.3     1  UNL1       -0.0587
      4 C          -5.3806    1.3725    0.0874 C.ar    1  UNL1       -0.0448
      5 C          -5.5834    0.2428    0.8485 C.ar    1  UNL1       -0.0577
      6 C          -4.6706   -0.8087    0.8511 C.ar    1  UNL1       -0.0523
      7 C          -3.5353   -0.7463    0.0889 C.ar    1  UNL1        0.0010
      8 C          -2.5572   -1.8830    0.0985 C.ar    1  UNL1        0.0802
      9 C          -2.7735   -2.9669    0.8445 C.ar    1  UNL1        0.0049
     10 S          -1.3425   -4.0032    0.5090 S.2     1  UNL1       -0.0599
     11 C          -0.6033   -2.8250   -0.6246 C.ar    1  UNL1        0.1649
     12 N           0.6405   -2.9965   -1.3228 N.am    1  UNL1       -0.2644
     13 C           1.8572   -2.5565   -0.7253 C.2     1  UNL1        0.2230
     14 O           1.7415   -2.0233    0.4319 O.2     1  UNL1       -0.2751
     15 C           3.1813   -2.6968   -1.3825 C.3     1  UNL1        0.0503
     16 C           4.2024   -2.1001   -0.4890 C.ar    1  UNL1       -0.0243
     17 C           5.0240   -2.9562    0.2664 C.ar    1  UNL1       -0.0573
     18 C           5.9712   -2.4358    1.1017 C.ar    1  UNL1       -0.0595
     19 C           6.1318   -1.0766    1.2134 C.ar    1  UNL1       -0.0373
     20 C           5.3468   -0.2093    0.4903 C.ar    1  UNL1        0.0586
     21 C           4.3685   -0.7389   -0.3726 C.ar    1  UNL1        0.0668
     22 C           3.6001    0.1470   -1.0817 C.ar    1  UNL1        0.2643
     23 O           2.7177   -0.2753   -1.8617 O.2     1  UNL1       -0.2668
     24 N           3.7915    1.4853   -0.9423 N.ar    1  UNL1       -0.2635
     25 C           2.9370    2.3514   -1.7267 C.3     1  UNL1        0.0196
     26 C           4.7317    1.9278   -0.1110 C.ar    1  UNL1        0.3319
     27 O           4.8779    3.1815   -0.0099 O.2     1  UNL1       -0.2463
     28 N           5.5202    1.1305    0.6137 N.ar    1  UNL1       -0.2962
     29 C           6.5463    1.6053    1.5197 C.3     1  UNL1        0.0167
     30 N          -1.4770   -1.8780   -0.5960 N.ar    1  UNL1       -0.2246
     31 C          -3.3313    0.3784   -0.6701 C.ar    1  UNL1       -0.0523
     32 C          -4.2280    1.4238   -0.6797 C.ar    1  UNL1       -0.0577
     33 H          -7.5589    1.0560   -0.9057 H       1  UNL1        0.0235
     34 H          -8.2213    2.7479   -1.0383 H       1  UNL1        0.0235
     35 H          -8.3198    1.7869    0.5402 H       1  UNL1        0.0235
     36 H          -6.0154    3.2669   -0.6290 H       1  UNL1        0.0343
     37 H          -7.2023    2.5051    2.1085 H       1  UNL1        0.0235
     38 H          -6.9861    4.0985    1.3520 H       1  UNL1        0.0235
     39 H          -5.5287    3.2777    1.9477 H       1  UNL1        0.0235
     40 H          -6.4813    0.1981    1.4482 H       1  UNL1        0.0621
     41 H          -4.8792   -1.6822    1.4729 H       1  UNL1        0.0624
     42 H          -3.6332   -3.2871    1.5751 H       1  UNL1        0.0716
     43 H           0.6740   -3.4334   -2.2520 H       1  UNL1        0.1567
     44 H           3.1204   -2.2709   -2.3925 H       1  UNL1        0.0407
     45 H           3.4156   -3.8083   -1.4632 H       1  UNL1        0.0407
     46 H           4.8574   -4.0070    0.1428 H       1  UNL1        0.0621
     47 H           6.6231   -3.0904    1.7006 H       1  UNL1        0.0618
     48 H           6.8935   -0.6785    1.8858 H       1  UNL1        0.0638
     49 H           2.8322    3.3578   -1.2695 H       1  UNL1        0.0458
     50 H           3.4222    2.5026   -2.7144 H       1  UNL1        0.0458
     51 H           1.9042    1.9448   -1.8359 H       1  UNL1        0.0458
     52 H           6.3857    1.2310    2.5558 H       1  UNL1        0.0457
     53 H           6.5949    2.6921    1.5775 H       1  UNL1        0.0457
     54 H           7.5104    1.1469    1.1825 H       1  UNL1        0.0457
     55 H          -2.4449    0.4502   -1.2783 H       1  UNL1        0.0624
     56 H          -4.0683    2.3102   -1.2772 H       1  UNL1        0.0621
@<TRIPOS>BOND
     1     1     2    1
     2     2     3    1
     3     2     4    1
     4     4     5   ar
     5     5     6   ar
     6     6     7   ar
     7     7     8    1
     8     8     9   ar
     9     9    10   ar
    10    10    11   ar
    11    11    12    1
    12    12    13   am
    13    13    14    2
    14    13    15    1
    15    15    16    1
    16    16    17   ar
    17    17    18   ar
    18    18    19   ar
    19    19    20   ar
    20    20    21   ar
    21    21    22   ar
    22    22    23    2
    23    22    24   ar
    24    24    25    1
    25    24    26   ar
    26    26    27    2
    27    26    28   ar
    28    28    29    1
    29    11    30   ar
    30     7    31   ar
    31    31    32   ar
    32    32     4   ar
    33    30     8   ar
    34    21    16   ar
    35    28    20   ar
    36     1    33    1
    37     1    34    1
    38     1    35    1
    39     2    36    1
    40     3    37    1
    41     3    38    1
    42     3    39    1
    43     5    40    1
    44     6    41    1
    45     9    42    1
    46    12    43    1
    47    15    44    1
    48    15    45    1
    49    17    46    1
    50    18    47    1
    51    19    48    1
    52    25    49    1
    53    25    50    1
    54    25    51    1
    55    29    52    1
    56    29    53    1
    57    29    54    1
    58    31    55    1
    59    32    56    1
@<TRIPOS>MOLECULE
343244
 63 66 0 0 0
SMALL
GASTEIGER

@<TRIPOS>ATOM
      1 C          10.7858    0.9570    0.0549 C.3     1  UNL1       -0.0626
      2 C           9.3029    1.0657    0.1082 C.3     1  UNL1       -0.0436
      3 C           8.8840    2.1993   -0.8070 C.3     1  UNL1       -0.0626
      4 C           8.5677   -0.1802   -0.3608 C.3     1  UNL1       -0.0163
      5 C           7.1145    0.1094   -0.2056 C.3     1  UNL1        0.0898
      6 O           6.2641   -0.9729   -0.6007 O.3     1  UNL1       -0.4920
      7 C           4.8845   -0.7653   -0.4337 C.ar    1  UNL1        0.1205
      8 C           3.9741   -1.7219   -0.7737 C.ar    1  UNL1       -0.0193
      9 C           2.6042   -1.5392   -0.6121 C.ar    1  UNL1       -0.0491
     10 C           2.1268   -0.3537   -0.0910 C.ar    1  UNL1        0.0012
     11 C           0.6800   -0.1088    0.1214 C.ar    1  UNL1        0.0802
     12 C           0.2272    1.1098    0.6115 C.ar    1  UNL1        0.0049
     13 S          -1.5348    0.9150    0.6530 S.2     1  UNL1       -0.0599
     14 C          -1.4042   -0.8857   -0.0362 C.ar    1  UNL1        0.1649
     15 N          -2.7154   -1.5237   -0.2074 N.am    1  UNL1       -0.2644
     16 C          -3.3127   -2.0730    0.9352 C.2     1  UNL1        0.2230
     17 O          -2.7100   -2.0095    2.0338 O.2     1  UNL1       -0.2751
     18 C          -4.6541   -2.7292    0.9117 C.3     1  UNL1        0.0503
     19 C          -5.5791   -2.0129   -0.0044 C.ar    1  UNL1       -0.0243
     20 C          -5.8486   -2.5531   -1.2697 C.ar    1  UNL1       -0.0573
     21 C          -6.6339   -1.9736   -2.2112 C.ar    1  UNL1       -0.0595
     22 C          -7.2171   -0.7583   -1.9077 C.ar    1  UNL1       -0.0373
     23 C          -6.9827   -0.1915   -0.6785 C.ar    1  UNL1        0.0586
     24 C          -6.1711   -0.8078    0.2768 C.ar    1  UNL1        0.0668
     25 C          -5.9812   -0.1880    1.4718 C.ar    1  UNL1        0.2643
     26 O          -5.2763   -0.7127    2.3341 O.2     1  UNL1       -0.2668
     27 N          -6.5789    1.0158    1.7105 N.ar    1  UNL1       -0.2635
     28 C          -6.3698    1.6875    2.9751 C.3     1  UNL1        0.0196
     29 C          -7.3488    1.5758    0.7670 C.ar    1  UNL1        0.3319
     30 O          -7.8984    2.6849    0.9903 O.2     1  UNL1       -0.2463
     31 N          -7.5624    0.9914   -0.4280 N.ar    1  UNL1       -0.2962
     32 C          -8.3988    1.6335   -1.4175 C.3     1  UNL1        0.0167
     33 N          -0.2793   -0.9567   -0.1373 N.ar    1  UNL1       -0.2246
     34 C           3.0581    0.6032    0.2461 C.ar    1  UNL1       -0.0491
     35 C           4.4164    0.4253    0.0876 C.ar    1  UNL1       -0.0193
     36 H          11.1828    1.7444    0.7505 H       1  UNL1        0.0232
     37 H          11.2282    1.1687   -0.9182 H       1  UNL1        0.0232
     38 H          11.1424    0.0018    0.4833 H       1  UNL1        0.0232
     39 H           8.9793    1.3011    1.1393 H       1  UNL1        0.0297
     40 H           9.7691    2.8128   -1.1185 H       1  UNL1        0.0232
     41 H           8.1523    2.8630   -0.2784 H       1  UNL1        0.0232
     42 H           8.4210    1.7992   -1.7089 H       1  UNL1        0.0232
     43 H           8.8560   -1.0866    0.2007 H       1  UNL1        0.0300
     44 H           8.8241   -0.3398   -1.4275 H       1  UNL1        0.0300
     45 H           6.8112    0.9849   -0.8054 H       1  UNL1        0.0696
     46 H           6.8468    0.3084    0.8573 H       1  UNL1        0.0696
     47 H           4.3222   -2.6567   -1.1899 H       1  UNL1        0.0654
     48 H           1.9137   -2.3209   -0.8915 H       1  UNL1        0.0625
     49 H           0.7746    1.9956    0.9128 H       1  UNL1        0.0716
     50 H          -3.1827   -1.5715   -1.1212 H       1  UNL1        0.1567
     51 H          -5.0607   -2.9574    1.9012 H       1  UNL1        0.0407
     52 H          -4.4674   -3.7226    0.4558 H       1  UNL1        0.0407
     53 H          -5.3887   -3.5054   -1.4910 H       1  UNL1        0.0621
     54 H          -6.8111   -2.4256   -3.1713 H       1  UNL1        0.0618
     55 H          -7.8395   -0.3080   -2.6678 H       1  UNL1        0.0638
     56 H          -5.4116    1.3058    3.3948 H       1  UNL1        0.0458
     57 H          -6.2413    2.7844    2.8471 H       1  UNL1        0.0458
     58 H          -7.2120    1.4852    3.6790 H       1  UNL1        0.0458
     59 H          -9.4067    1.2045   -1.4741 H       1  UNL1        0.0457
     60 H          -8.5427    2.7084   -1.0904 H       1  UNL1        0.0457
     61 H          -7.8807    1.6974   -2.4128 H       1  UNL1        0.0457
     62 H           2.6990    1.5611    0.6657 H       1  UNL1        0.0625
     63 H           5.0895    1.2118    0.3711 H       1  UNL1        0.0654
@<TRIPOS>BOND
     1     1     2    1
     2     2     3    1
     3     2     4    1
     4     4     5    1
     5     5     6    1
     6     6     7    1
     7     7     8   ar
     8     8     9   ar
     9     9    10   ar
    10    10    11    1
    11    11    12   ar
    12    12    13   ar
    13    13    14   ar
    14    14    15    1
    15    15    16   am
    16    16    17    2
    17    16    18    1
    18    18    19    1
    19    19    20   ar
    20    20    21   ar
    21    21    22   ar
    22    22    23   ar
    23    23    24   ar
    24    24    25   ar
    25    25    26    2
    26    25    27   ar
    27    27    28    1
    28    27    29   ar
    29    29    30    2
    30    29    31   ar
    31    31    32    1
    32    14    33   ar
    33    10    34   ar
    34    34    35   ar
    35    35     7   ar
    36    33    11   ar
    37    24    19   ar
    38    31    23   ar
    39     1    36    1
    40     1    37    1
    41     1    38    1
    42     2    39    1
    43     3    40    1
    44     3    41    1
    45     3    42    1
    46     4    43    1
    47     4    44    1
    48     5    45    1
    49     5    46    1
    50     8    47    1
    51     9    48    1
    52    12    49    1
    53    15    50    1
    54    18    51    1
    55    18    52    1
    56    20    53    1
    57    21    54    1
    58    22    55    1
    59    28    56    1
    60    28    57    1
    61    28    58    1
    62    32    59    1
    63    32    60    1
    64    32    61    1
    65    34    62    1
    66    35    63    1
@<TRIPOS>MOLECULE
343275
 57 60 0 0 0
SMALL
GASTEIGER

@<TRIPOS>ATOM
      1 C          -9.3121    0.7960   -0.5200 C.3     1  UNL1       -0.0596
      2 C          -8.4679    1.1096    0.6836 C.3     1  UNL1       -0.0124
      3 C          -8.6947    0.1057    1.8056 C.3     1  UNL1       -0.0596
      4 C          -7.0020    1.0067    0.3259 C.3     1  UNL1        0.0921
      5 O          -6.6647   -0.2931   -0.1170 O.3     1  UNL1       -0.4861
      6 C          -5.3377   -0.5198   -0.4797 C.ar    1  UNL1        0.1907
      7 C          -4.3973   -0.9446    0.4436 C.ar    1  UNL1        0.1683
      8 F          -4.8366   -1.1245    1.7115 F       1  UNL1       -0.2015
      9 C          -3.0827   -1.1721    0.0942 C.ar    1  UNL1       -0.0134
     10 C          -2.6321   -0.9882   -1.1972 C.ar    1  UNL1        0.0066
     11 C          -1.2380   -1.2343   -1.5603 C.ar    1  UNL1        0.0804
     12 C          -0.7564   -1.0419   -2.9435 C.ar    1  UNL1        0.0049
     13 S           0.9575   -1.4750   -2.8232 S.2     1  UNL1       -0.0599
     14 C           0.8578   -1.8624   -0.9667 C.ar    1  UNL1        0.1649
     15 N           2.0157   -2.2908   -0.2840 N.am    1  UNL1       -0.2644
     16 C           2.9537   -1.4318    0.3491 C.2     1  UNL1        0.2231
     17 O           2.7214   -0.2014    0.2875 O.2     1  UNL1       -0.2751
     18 C           4.1508   -1.9662    1.0492 C.3     1  UNL1        0.0532
     19 C           4.9779   -0.8812    1.6239 C.ar    1  UNL1        0.0137
     20 C           5.1136   -0.4494    2.9238 C.ar    1  UNL1        0.0988
     21 O           5.9720    0.5503    2.9361 O.2     1  UNL1       -0.4460
     22 C           6.4191    0.8176    1.7420 C.ar    1  UNL1        0.2171
     23 C           5.8077   -0.0751    0.8764 C.ar    1  UNL1        0.1062
     24 C           6.1065   -0.0152   -0.4849 C.ar    1  UNL1        0.2675
     25 O           5.5371   -0.8381   -1.2529 O.2     1  UNL1       -0.2667
     26 N           6.9672    0.8789   -0.9867 N.ar    1  UNL1       -0.2633
     27 C           7.2387    0.8954   -2.4093 C.3     1  UNL1        0.0196
     28 C           7.5395    1.7275   -0.1153 C.ar    1  UNL1        0.3341
     29 O           8.3486    2.5733   -0.5625 O.2     1  UNL1       -0.2462
     30 N           7.2780    1.7016    1.2022 N.ar    1  UNL1       -0.2667
     31 C           7.9137    2.6345    2.1182 C.3     1  UNL1        0.0194
     32 N          -0.2904   -1.6309   -0.7827 N.ar    1  UNL1       -0.2246
     33 C          -3.5627   -0.5657   -2.1199 C.ar    1  UNL1       -0.0134
     34 C          -4.8924   -0.3351   -1.7688 C.ar    1  UNL1        0.1683
     35 F          -5.7591    0.0766   -2.7111 F       1  UNL1       -0.2015
     36 H         -10.3712    1.0501   -0.3314 H       1  UNL1        0.0233
     37 H          -8.9730    1.5081   -1.3268 H       1  UNL1        0.0233
     38 H          -9.1418   -0.2134   -0.8986 H       1  UNL1        0.0233
     39 H          -8.7213    2.1052    1.0874 H       1  UNL1        0.0328
     40 H          -7.9654    0.3587    2.6045 H       1  UNL1        0.0233
     41 H          -8.4723   -0.9287    1.4668 H       1  UNL1        0.0233
     42 H          -9.7083    0.2041    2.2483 H       1  UNL1        0.0233
     43 H          -6.7939    1.7462   -0.4756 H       1  UNL1        0.0699
     44 H          -6.3748    1.2782    1.2020 H       1  UNL1        0.0699
     45 H          -2.3544   -1.5023    0.8151 H       1  UNL1        0.0654
     46 H          -1.3531   -0.7166   -3.7727 H       1  UNL1        0.0716
     47 H           2.1997   -3.3169   -0.2403 H       1  UNL1        0.1567
     48 H           4.7636   -2.6314    0.3901 H       1  UNL1        0.0408
     49 H           3.8096   -2.5928    1.8925 H       1  UNL1        0.0408
     50 H           4.5793   -0.8911    3.7727 H       1  UNL1        0.1033
     51 H           6.3652    1.2901   -2.9823 H       1  UNL1        0.0458
     52 H           8.1049    1.5573   -2.6395 H       1  UNL1        0.0458
     53 H           7.4653   -0.1006   -2.8216 H       1  UNL1        0.0458
     54 H           7.1695    3.1163    2.7824 H       1  UNL1        0.0458
     55 H           8.6547    2.1255    2.7709 H       1  UNL1        0.0458
     56 H           8.3992    3.4292    1.5179 H       1  UNL1        0.0458
     57 H          -3.2312   -0.4124   -3.1489 H       1  UNL1        0.0654
@<TRIPOS>BOND
     1     1     2    1
     2     2     3    1
     3     2     4    1
     4     4     5    1
     5     5     6    1
     6     6     7   ar
     7     7     8    1
     8     7     9   ar
     9     9    10   ar
    10    10    11    1
    11    11    12   ar
    12    12    13   ar
    13    13    14   ar
    14    14    15    1
    15    15    16   am
    16    16    17    2
    17    16    18    1
    18    18    19    1
    19    19    20   ar
    20    20    21   ar
    21    21    22   ar
    22    22    23   ar
    23    23    24   ar
    24    24    25    2
    25    24    26   ar
    26    26    27    1
    27    26    28   ar
    28    28    29    2
    29    28    30   ar
    30    30    31    1
    31    14    32   ar
    32    10    33   ar
    33    33    34   ar
    34    34    35    1
    35    34     6   ar
    36    32    11   ar
    37    23    19   ar
    38    30    22   ar
    39     1    36    1
    40     1    37    1
    41     1    38    1
    42     2    39    1
    43     3    40    1
    44     3    41    1
    45     3    42    1
    46     4    43    1
    47     4    44    1
    48     9    45    1
    49    12    46    1
    50    15    47    1
    51    18    48    1
    52    18    49    1
    53    20    50    1
    54    27    51    1
    55    27    52    1
    56    27    53    1
    57    31    54    1
    58    31    55    1
    59    31    56    1
    60    33    57    1
@<TRIPOS>MOLECULE
343245
 60 63 0 0 0
SMALL
GASTEIGER

@<TRIPOS>ATOM
      1 C          -9.9014    0.8078   -1.5996 C.3     1  UNL1       -0.0596
      2 C          -9.4782   -0.2101   -0.5332 C.3     1  UNL1       -0.0124
      3 C         -10.1104    0.1961    0.7818 C.3     1  UNL1       -0.0596
      4 C          -7.9653   -0.1093   -0.4662 C.3     1  UNL1        0.0919
      5 O          -7.4254   -1.0087    0.4682 O.3     1  UNL1       -0.4917
      6 C          -6.0514   -1.0389    0.6700 C.ar    1  UNL1        0.1205
      7 C          -5.1916   -0.2063   -0.0069 C.ar    1  UNL1       -0.0193
      8 C          -3.8332   -0.2372    0.1951 C.ar    1  UNL1       -0.0491
      9 C          -3.2483   -1.1064    1.0896 C.ar    1  UNL1        0.0012
     10 C          -1.8056   -1.1254    1.3217 C.ar    1  UNL1        0.0802
     11 C          -1.2096   -2.0117    2.2404 C.ar    1  UNL1        0.0049
     12 S           0.4946   -1.6502    2.1779 S.2     1  UNL1       -0.0599
     13 C           0.2267   -0.2726    0.8550 C.ar    1  UNL1        0.1649
     14 N           1.3973    0.4177    0.4201 N.am    1  UNL1       -0.2644
     15 C           2.2049   -0.0163   -0.6658 C.2     1  UNL1        0.2230
     16 O           1.8249   -1.0735   -1.2252 O.2     1  UNL1       -0.2751
     17 C           3.4304    0.7493   -1.1127 C.3     1  UNL1        0.0503
     18 C           4.6493   -0.0659   -0.9964 C.ar    1  UNL1       -0.0243
     19 C           4.6690   -1.4308   -1.1777 C.ar    1  UNL1       -0.0573
     20 C           5.8084   -2.2180   -1.0272 C.ar    1  UNL1       -0.0595
     21 C           6.9887   -1.6280   -0.6813 C.ar    1  UNL1       -0.0373
     22 C           7.0203   -0.2707   -0.4917 C.ar    1  UNL1        0.0586
     23 C           5.8736    0.5159   -0.6437 C.ar    1  UNL1        0.0668
     24 C           6.0324    1.8569   -0.4561 C.ar    1  UNL1        0.2643
     25 O           5.0791    2.6343   -0.5764 O.2     1  UNL1       -0.2668
     26 N           7.2363    2.4001   -0.1356 N.ar    1  UNL1       -0.2635
     27 C           7.4189    3.8203    0.0677 C.3     1  UNL1        0.0196
     28 C           8.3068    1.6052    0.0017 C.ar    1  UNL1        0.3319
     29 O           9.4055    2.1017    0.2947 O.2     1  UNL1       -0.2463
     30 N           8.2134    0.2700   -0.1734 N.ar    1  UNL1       -0.2962
     31 C           9.3632   -0.5658   -0.0322 C.3     1  UNL1        0.0167
     32 N          -0.9275   -0.3534    0.7442 N.ar    1  UNL1       -0.2246
     33 C          -4.1054   -1.9426    1.7690 C.ar    1  UNL1       -0.0491
     34 C          -5.4696   -1.9177    1.5724 C.ar    1  UNL1       -0.0193
     35 H          -9.4889    0.4975   -2.5972 H       1  UNL1        0.0233
     36 H          -9.4428    1.7797   -1.3544 H       1  UNL1        0.0233
     37 H         -10.9937    0.8336   -1.6526 H       1  UNL1        0.0233
     38 H          -9.7399   -1.2402   -0.7879 H       1  UNL1        0.0328
     39 H         -10.7448    1.1100    0.6250 H       1  UNL1        0.0233
     40 H         -10.7802   -0.5919    1.1711 H       1  UNL1        0.0233
     41 H          -9.3297    0.4731    1.5431 H       1  UNL1        0.0233
     42 H          -7.7513    0.9518   -0.1989 H       1  UNL1        0.0699
     43 H          -7.5952   -0.3875   -1.4691 H       1  UNL1        0.0699
     44 H          -5.6387    0.4923   -0.7184 H       1  UNL1        0.0654
     45 H          -3.1791    0.4326   -0.3572 H       1  UNL1        0.0625
     46 H          -1.7537   -2.8009    2.8882 H       1  UNL1        0.0716
     47 H           1.6562    1.2822    0.9311 H       1  UNL1        0.1567
     48 H           3.2158    1.1247   -2.1224 H       1  UNL1        0.0407
     49 H           3.4450    1.5844   -0.3559 H       1  UNL1        0.0407
     50 H           3.7752   -1.9475   -1.4621 H       1  UNL1        0.0621
     51 H           5.7553   -3.2712   -1.1844 H       1  UNL1        0.0618
     52 H           7.8887   -2.2478   -0.5600 H       1  UNL1        0.0638
     53 H           6.4463    4.3480   -0.0627 H       1  UNL1        0.0458
     54 H           8.1757    4.1819   -0.6572 H       1  UNL1        0.0458
     55 H           7.8510    3.9940    1.0954 H       1  UNL1        0.0458
     56 H           9.2222   -1.3059    0.7512 H       1  UNL1        0.0457
     57 H           9.6426   -1.0057   -1.0140 H       1  UNL1        0.0457
     58 H          10.2501    0.0510    0.2566 H       1  UNL1        0.0457
     59 H          -3.6910   -2.6645    2.5014 H       1  UNL1        0.0625
     60 H          -6.1157   -2.5893    2.1241 H       1  UNL1        0.0654
@<TRIPOS>BOND
     1     1     2    1
     2     2     3    1
     3     2     4    1
     4     4     5    1
     5     5     6    1
     6     6     7   ar
     7     7     8   ar
     8     8     9   ar
     9     9    10    1
    10    10    11   ar
    11    11    12   ar
    12    12    13   ar
    13    13    14    1
    14    14    15   am
    15    15    16    2
    16    15    17    1
    17    17    18    1
    18    18    19   ar
    19    19    20   ar
    20    20    21   ar
    21    21    22   ar
    22    22    23   ar
    23    23    24   ar
    24    24    25    2
    25    24    26   ar
    26    26    27    1
    27    26    28   ar
    28    28    29    2
    29    28    30   ar
    30    30    31    1
    31    13    32   ar
    32     9    33   ar
    33    33    34   ar
    34    34     6   ar
    35    32    10   ar
    36    23    18   ar
    37    30    22   ar
    38     1    35    1
    39     1    36    1
    40     1    37    1
    41     2    38    1
    42     3    39    1
    43     3    40    1
    44     3    41    1
    45     4    42    1
    46     4    43    1
    47     7    44    1
    48     8    45    1
    49    11    46    1
    50    14    47    1
    51    17    48    1
    52    17    49    1
    53    19    50    1
    54    20    51    1
    55    21    52    1
    56    27    53    1
    57    27    54    1
    58    27    55    1
    59    31    56    1
    60    31    57    1
    61    31    58    1
    62    33    59    1
    63    34    60    1
@<TRIPOS>MOLECULE
343228
 50 53 0 0 0
SMALL
GASTEIGER

@<TRIPOS>ATOM
      1 C           9.3643    0.0708   -0.2260 C.3     1  UNL1       -0.0397
      2 C           7.9387    0.0362   -0.6142 C.ar    1  UNL1       -0.0504
      3 C           6.9803   -0.6362    0.1258 C.ar    1  UNL1       -0.0582
      4 C           5.6332   -0.6524   -0.2634 C.ar    1  UNL1       -0.0523
      5 C           5.2568    0.0168   -1.4084 C.ar    1  UNL1        0.0010
      6 C           3.7951    0.0091   -1.7823 C.ar    1  UNL1        0.0802
      7 C           3.4106    0.6983   -2.9721 C.ar    1  UNL1        0.0049
      8 S           1.6281    0.3899   -2.9692 S.2     1  UNL1       -0.0599
      9 C           1.6180   -0.6032   -1.3973 C.ar    1  UNL1        0.1649
     10 N           0.4681   -1.1415   -0.8108 N.am    1  UNL1       -0.2644
     11 C          -0.2692   -0.3370    0.1034 C.2     1  UNL1        0.2230
     12 O           0.1033    0.8582    0.3762 O.2     1  UNL1       -0.2751
     13 C          -1.4887   -0.8032    0.7926 C.3     1  UNL1        0.0503
     14 C          -2.6219   -0.0025    0.2452 C.ar    1  UNL1       -0.0243
     15 C          -2.4555    0.8285   -0.8498 C.ar    1  UNL1       -0.0573
     16 C          -3.5260    1.5611   -1.3533 C.ar    1  UNL1       -0.0595
     17 C          -4.7820    1.4688   -0.7644 C.ar    1  UNL1       -0.0373
     18 C          -4.9278    0.6449    0.3164 C.ar    1  UNL1        0.0586
     19 C          -3.8669   -0.1029    0.8433 C.ar    1  UNL1        0.0668
     20 C          -4.1306   -0.8764    1.9271 C.ar    1  UNL1        0.2643
     21 O          -3.2200   -1.5679    2.4414 O.2     1  UNL1       -0.2668
     22 N          -5.3490   -0.9514    2.5074 N.ar    1  UNL1       -0.2635
     23 C          -5.5658   -1.7700    3.6768 C.3     1  UNL1        0.0196
     24 C          -6.3597   -0.2185    1.9783 C.ar    1  UNL1        0.3319
     25 O          -7.4926   -0.3084    2.5379 O.2     1  UNL1       -0.2463
     26 N          -6.1429    0.5561    0.9100 N.ar    1  UNL1       -0.2962
     27 C          -7.2141    1.3301    0.3340 C.3     1  UNL1        0.0167
     28 N           2.8666   -0.5639   -1.1269 N.ar    1  UNL1       -0.2246
     29 C           6.1894    0.6774   -2.1381 C.ar    1  UNL1       -0.0523
     30 C           7.5367    0.6917   -1.7440 C.ar    1  UNL1       -0.0582
     31 H           9.4091    0.2377    0.8814 H       1  UNL1        0.0278
     32 H           9.7908   -0.9437   -0.3936 H       1  UNL1        0.0278
     33 H           9.8791    0.8743   -0.7608 H       1  UNL1        0.0278
     34 H           7.2752   -1.1461    1.0076 H       1  UNL1        0.0620
     35 H           4.9026   -1.1969    0.3366 H       1  UNL1        0.0624
     36 H           3.9766    1.2330   -3.6734 H       1  UNL1        0.0716
     37 H           0.1188   -2.0955   -1.0064 H       1  UNL1        0.1567
     38 H          -1.6005   -1.8841    0.6744 H       1  UNL1        0.0407
     39 H          -1.3049   -0.5217    1.8798 H       1  UNL1        0.0407
     40 H          -1.4703    0.8898   -1.3080 H       1  UNL1        0.0621
     41 H          -3.3553    2.1937   -2.2073 H       1  UNL1        0.0618
     42 H          -5.6250    2.0386   -1.1534 H       1  UNL1        0.0638
     43 H          -5.9876   -2.7407    3.3497 H       1  UNL1        0.0458
     44 H          -4.6031   -1.9722    4.1568 H       1  UNL1        0.0458
     45 H          -6.3096   -1.2937    4.3514 H       1  UNL1        0.0458
     46 H          -8.1245    1.1947    0.9481 H       1  UNL1        0.0457
     47 H          -7.4508    0.9600   -0.7068 H       1  UNL1        0.0457
     48 H          -7.0048    2.4290    0.3277 H       1  UNL1        0.0457
     49 H           5.8983    1.1999   -3.0306 H       1  UNL1        0.0624
     50 H           8.2096    1.2403   -2.3685 H       1  UNL1        0.0620
@<TRIPOS>BOND
     1     1     2    1
     2     2     3   ar
     3     3     4   ar
     4     4     5   ar
     5     5     6    1
     6     6     7   ar
     7     7     8   ar
     8     8     9   ar
     9     9    10    1
    10    10    11   am
    11    11    12    2
    12    11    13    1
    13    13    14    1
    14    14    15   ar
    15    15    16   ar
    16    16    17   ar
    17    17    18   ar
    18    18    19   ar
    19    19    20   ar
    20    20    21    2
    21    20    22   ar
    22    22    23    1
    23    22    24   ar
    24    24    25    2
    25    24    26   ar
    26    26    27    1
    27     9    28   ar
    28     5    29   ar
    29    29    30   ar
    30    30     2   ar
    31    28     6   ar
    32    19    14   ar
    33    26    18   ar
    34     1    31    1
    35     1    32    1
    36     1    33    1
    37     3    34    1
    38     4    35    1
    39     7    36    1
    40    10    37    1
    41    13    38    1
    42    13    39    1
    43    15    40    1
    44    16    41    1
    45    17    42    1
    46    23    43    1
    47    23    44    1
    48    23    45    1
    49    27    46    1
    50    27    47    1
    51    27    48    1
    52    29    49    1
    53    30    50    1
@<TRIPOS>MOLECULE
343317
 71 74 0 0 0
SMALL
GASTEIGER

@<TRIPOS>ATOM
      1 C           5.0628    1.6193   -2.4900 C.3     1  UNL1       -0.0060
      2 C           5.4726    0.4850   -1.6422 C.ar    1  UNL1        0.1089
      3 O           6.6645    0.2364   -1.1500 O.2     1  UNL1       -0.4431
      4 C           6.6361   -0.8818   -0.4331 C.ar    1  UNL1        0.2175
      5 C           5.3471   -1.3912   -0.4613 C.ar    1  UNL1        0.1065
      6 C           4.6289   -0.5063   -1.2340 C.ar    1  UNL1        0.0166
      7 C           3.1911   -0.6336   -1.5471 C.3     1  UNL1        0.0552
      8 C           2.3585    0.2933   -0.7602 C.2     1  UNL1        0.2428
      9 O           2.9112    1.0550    0.0593 O.2     1  UNL1       -0.2733
     10 N           0.9507    0.2900   -0.9602 N.am    1  UNL1       -0.1560
     11 C           0.2793    1.2213   -0.3864 C.ar    1  UNL1        0.1685
     12 S           0.9953    2.5085    0.6372 S.2     1  UNL1       -0.0598
     13 C          -0.5698    3.2989    0.9941 C.ar    1  UNL1        0.0031
     14 C          -1.4854    2.4976    0.2930 C.ar    1  UNL1        0.0607
     15 C          -2.9288    2.9141    0.3224 C.ar    1  UNL1        0.0008
     16 C          -3.9628    2.0975    0.6432 C.ar    1  UNL1       -0.0491
     17 C          -5.2848    2.5045    0.6414 C.ar    1  UNL1       -0.0175
     18 C          -5.5915    3.8275    0.2926 C.ar    1  UNL1        0.1483
     19 O          -6.9065    4.1615    0.3116 O.3     1  UNL1       -0.4043
     20 C          -7.5859    5.3157    0.0182 C.3     1  UNL1        0.5753
     21 F          -7.3946    5.6718   -1.2924 F       1  UNL1       -0.1328
     22 F          -8.9600    5.0710    0.1561 F       1  UNL1       -0.1328
     23 F          -7.3280    6.3651    0.8841 F       1  UNL1       -0.1328
     24 C          -4.5545    4.6709   -0.0350 C.ar    1  UNL1        0.0835
     25 CL         -4.8834    6.3572   -0.4683 Cl      1  UNL1       -0.0797
     26 C          -3.2421    4.2231   -0.0213 C.ar    1  UNL1       -0.0307
     27 N          -1.0394    1.4821   -0.3772 N.ar    1  UNL1       -0.2872
     28 C          -1.8993    0.5318   -1.1422 C.3     1  UNL1        0.1714
     29 O          -2.1164   -0.5630   -0.2844 O.3     1  UNL1       -0.4419
     30 C          -2.8882   -1.6550   -0.6428 C.2     1  UNL1        0.3260
     31 O          -3.4131   -1.6580   -1.7779 O.2     1  UNL1       -0.2490
     32 C          -3.0660   -2.7760    0.3264 C.3     1  UNL1        0.1058
     33 N          -2.2593   -2.5390    1.5129 N.3     1  UNL1       -0.3182
     34 C          -4.4989   -2.8512    0.7895 C.3     1  UNL1       -0.0211
     35 C          -5.4714   -3.0811   -0.3490 C.3     1  UNL1       -0.0607
     36 C          -4.8736   -1.6223    1.5689 C.3     1  UNL1       -0.0607
     37 C           5.0671   -2.5575    0.2168 C.ar    1  UNL1        0.2675
     38 O           3.8896   -2.9911    0.1709 O.2     1  UNL1       -0.2667
     39 N           6.0205   -3.2072    0.9028 N.ar    1  UNL1       -0.2633
     40 C           5.7589   -4.4362    1.6232 C.3     1  UNL1        0.0196
     41 C           7.2415   -2.6710    0.8950 C.ar    1  UNL1        0.3341
     42 O           8.1410   -3.2754    1.5363 O.2     1  UNL1       -0.2462
     43 N           7.5741   -1.5503    0.2610 N.ar    1  UNL1       -0.2667
     44 C           8.9227   -1.0134    0.2888 C.3     1  UNL1        0.0194
     45 H           4.2424    1.3402   -3.1876 H       1  UNL1        0.0308
     46 H           4.6730    2.4834   -1.8997 H       1  UNL1        0.0308
     47 H           5.9121    2.0117   -3.0852 H       1  UNL1        0.0308
     48 H           2.8165   -1.6478   -1.4070 H       1  UNL1        0.0409
     49 H           3.1084   -0.4276   -2.6532 H       1  UNL1        0.0409
     50 H          -0.7464    4.1881    1.6106 H       1  UNL1        0.0715
     51 H          -3.7329    1.0664    0.9356 H       1  UNL1        0.0625
     52 H          -6.0254    1.7933    0.9066 H       1  UNL1        0.0655
     53 H          -2.4510    4.8969   -0.2809 H       1  UNL1        0.0640
     54 H          -2.8399    1.0421   -1.4268 H       1  UNL1        0.0945
     55 H          -1.3474    0.2042   -2.0173 H       1  UNL1        0.0945
     56 H          -2.7920   -3.7304   -0.1514 H       1  UNL1        0.0577
     57 H          -2.6042   -3.2190    2.2349 H       1  UNL1        0.1190
     58 H          -1.2895   -2.8786    1.2771 H       1  UNL1        0.1190
     59 H          -4.5697   -3.7696    1.4434 H       1  UNL1        0.0316
     60 H          -6.4110   -3.4787    0.0903 H       1  UNL1        0.0233
     61 H          -5.0956   -3.8278   -1.0656 H       1  UNL1        0.0233
     62 H          -5.6751   -2.0829   -0.8061 H       1  UNL1        0.0233
     63 H          -3.9788   -1.0889    1.9653 H       1  UNL1        0.0233
     64 H          -5.4330   -0.8805    0.9546 H       1  UNL1        0.0233
     65 H          -5.5614   -1.9380    2.3913 H       1  UNL1        0.0233
     66 H           4.9455   -4.9997    1.1212 H       1  UNL1        0.0458
     67 H           6.6999   -5.0219    1.6224 H       1  UNL1        0.0458
     68 H           5.5037   -4.1985    2.6815 H       1  UNL1        0.0458
     69 H           9.6063   -1.8695    0.3344 H       1  UNL1        0.0458
     70 H           9.0163   -0.3399    1.1773 H       1  UNL1        0.0458
     71 H           9.1195   -0.4656   -0.6537 H       1  UNL1        0.0458
@<TRIPOS>BOND
     1     1     2    1
     2     2     3   ar
     3     3     4   ar
     4     4     5   ar
     5     5     6   ar
     6     6     7    1
     7     7     8    1
     8     8     9    2
     9     8    10    1
    10    10    11    2
    11    11    12   ar
    12    12    13   ar
    13    13    14   ar
    14    14    15    1
    15    15    16   ar
    16    16    17   ar
    17    17    18   ar
    18    18    19    1
    19    19    20    1
    20    20    21    1
    21    20    22    1
    22    20    23    1
    23    18    24   ar
    24    24    25    1
    25    24    26   ar
    26    14    27   ar
    27    27    28    1
    28    28    29    1
    29    29    30    1
    30    30    31    2
    31    30    32    1
    32    32    33    1
    33    32    34    1
    34    34    35    1
    35    34    36    1
    36     5    37   ar
    37    37    38    2
    38    37    39   ar
    39    39    40    1
    40    39    41   ar
    41    41    42    2
    42    41    43   ar
    43    43    44    1
    44     6     2   ar
    45    27    11   ar
    46    43     4   ar
    47    26    15   ar
    48     1    45    1
    49     1    46    1
    50     1    47    1
    51     7    48    1
    52     7    49    1
    53    13    50    1
    54    16    51    1
    55    17    52    1
    56    26    53    1
    57    28    54    1
    58    28    55    1
    59    32    56    1
    60    33    57    1
    61    33    58    1
    62    34    59    1
    63    35    60    1
    64    35    61    1
    65    35    62    1
    66    36    63    1
    67    36    64    1
    68    36    65    1
    69    40    66    1
    70    40    67    1
    71    40    68    1
    72    44    69    1
    73    44    70    1
    74    44    71    1
@<TRIPOS>MOLECULE
343315
 60 63 0 0 0
SMALL
GASTEIGER

@<TRIPOS>ATOM
      1 C           3.5891   -3.5560   -0.1172 C.3     1  UNL1       -0.0060
      2 C           4.2399   -2.2221   -0.0684 C.ar    1  UNL1        0.1089
      3 O           5.4121   -2.0071    0.4698 O.2     1  UNL1       -0.4431
      4 C           5.7001   -0.7159    0.3471 C.ar    1  UNL1        0.2175
      5 C           4.6596   -0.0728   -0.3024 C.ar    1  UNL1        0.1065
      6 C           3.7190   -1.0554   -0.5677 C.ar    1  UNL1        0.0166
      7 C           2.4247   -0.8541   -1.2557 C.3     1  UNL1        0.0552
      8 C           1.2967   -0.8616   -0.2901 C.2     1  UNL1        0.2428
      9 O           1.5593   -1.0248    0.9188 O.2     1  UNL1       -0.2733
     10 N          -0.0181   -0.6822   -0.8000 N.am    1  UNL1       -0.1561
     11 C          -0.9232   -0.2407   -0.0530 C.ar    1  UNL1        0.1677
     12 S          -0.6082    0.1974    1.7293 S.2     1  UNL1       -0.0599
     13 C          -2.3676    0.7356    1.9721 C.ar    1  UNL1        0.0031
     14 C          -2.9435    0.5263    0.7365 C.ar    1  UNL1        0.0597
     15 C          -4.3983    0.9506    0.6520 C.ar    1  UNL1        0.0007
     16 C          -5.3557    0.1009    0.2111 C.ar    1  UNL1       -0.0491
     17 C          -6.6695    0.5928    0.1384 C.ar    1  UNL1       -0.0175
     18 C          -6.9603    1.8861    0.5036 C.ar    1  UNL1        0.1483
     19 O          -8.2607    2.4133    0.4443 O.3     1  UNL1       -0.4043
     20 C          -9.1642    2.3459    1.5104 C.3     1  UNL1        0.5753
     21 F         -10.3340    2.9595    1.1064 F       1  UNL1       -0.1328
     22 F          -8.6751    2.8628    2.6933 F       1  UNL1       -0.1328
     23 F          -9.3895    0.9845    1.7499 F       1  UNL1       -0.1328
     24 C          -5.9787    2.7567    0.9565 C.ar    1  UNL1        0.0835
     25 CL         -6.3795    4.3975    1.4148 Cl      1  UNL1       -0.0797
     26 C          -4.7089    2.2562    1.0182 C.ar    1  UNL1       -0.0307
     27 N          -2.2349    0.0506   -0.2449 N.ar    1  UNL1       -0.2968
     28 C          -2.7911   -0.1650   -1.6157 C.3     1  UNL1        0.1372
     29 O          -3.3327   -1.3664   -1.8445 O.3     1  UNL1       -0.2650
     30 P          -2.4420   -2.7420   -1.7084 P.3     1  UNL1        0.4740
     31 O          -1.9419   -3.0585   -0.3208 O.2     1  UNL1       -0.2275
     32 O          -3.4886   -4.0550   -2.1035 O.3     1  UNL1       -0.3026
     33 O          -1.1048   -2.8176   -2.7601 O.3     1  UNL1       -0.3026
     34 C           4.7134    1.2633   -0.5504 C.ar    1  UNL1        0.2675
     35 O           3.7793    1.8299   -1.1310 O.2     1  UNL1       -0.2667
     36 N           5.8175    1.9483   -0.1426 N.ar    1  UNL1       -0.2633
     37 C           5.9129    3.3714   -0.3867 C.3     1  UNL1        0.0196
     38 C           6.8342    1.3380    0.4879 C.ar    1  UNL1        0.3341
     39 O           7.8547    1.9491    0.8691 O.2     1  UNL1       -0.2462
     40 N           6.7615    0.0169    0.7236 N.ar    1  UNL1       -0.2667
     41 C           7.8609   -0.6533    1.4060 C.3     1  UNL1        0.0194
     42 H           3.2699   -3.9078    0.8801 H       1  UNL1        0.0308
     43 H           4.2921   -4.3059   -0.5411 H       1  UNL1        0.0308
     44 H           2.7135   -3.5142   -0.8127 H       1  UNL1        0.0308
     45 H           2.3211   -1.7037   -1.9926 H       1  UNL1        0.0409
     46 H           2.4326    0.0679   -1.8755 H       1  UNL1        0.0409
     47 H          -2.7301    1.1036    2.9003 H       1  UNL1        0.0715
     48 H          -5.1624   -0.9233   -0.0620 H       1  UNL1        0.0625
     49 H          -7.4406   -0.0520   -0.2048 H       1  UNL1        0.0655
     50 H          -3.8960    2.8825    1.3631 H       1  UNL1        0.0640
     51 H          -3.5862    0.6129   -1.7674 H       1  UNL1        0.0806
     52 H          -1.9968    0.0528   -2.3660 H       1  UNL1        0.0806
     53 H          -3.1614   -4.8758   -1.6770 H       1  UNL1        0.2220
     54 H          -1.0015   -3.7502   -3.0237 H       1  UNL1        0.2220
     55 H           5.1271    3.6919   -1.0953 H       1  UNL1        0.0458
     56 H           6.9057    3.6594   -0.7821 H       1  UNL1        0.0458
     57 H           5.7859    3.9291    0.5642 H       1  UNL1        0.0458
     58 H           8.4996    0.0906    1.9314 H       1  UNL1        0.0458
     59 H           8.4712   -1.2258    0.6479 H       1  UNL1        0.0458
     60 H           7.4925   -1.4150    2.1155 H       1  UNL1        0.0458
@<TRIPOS>BOND
     1     1     2    1
     2     2     3   ar
     3     3     4   ar
     4     4     5   ar
     5     5     6   ar
     6     6     7    1
     7     7     8    1
     8     8     9    2
     9     8    10    1
    10    10    11    2
    11    11    12   ar
    12    12    13   ar
    13    13    14   ar
    14    14    15    1
    15    15    16   ar
    16    16    17   ar
    17    17    18   ar
    18    18    19    1
    19    19    20    1
    20    20    21    1
    21    20    22    1
    22    20    23    1
    23    18    24   ar
    24    24    25    1
    25    24    26   ar
    26    14    27   ar
    27    27    28    1
    28    28    29    1
    29    29    30    1
    30    30    31    2
    31    30    32    1
    32    30    33    1
    33     5    34   ar
    34    34    35    2
    35    34    36   ar
    36    36    37    1
    37    36    38   ar
    38    38    39    2
    39    38    40   ar
    40    40    41    1
    41     6     2   ar
    42    27    11   ar
    43    40     4   ar
    44    26    15   ar
    45     1    42    1
    46     1    43    1
    47     1    44    1
    48     7    45    1
    49     7    46    1
    50    13    47    1
    51    16    48    1
    52    17    49    1
    53    26    50    1
    54    28    51    1
    55    28    52    1
    56    32    53    1
    57    33    54    1
    58    37    55    1
    59    37    56    1
    60    37    57    1
    61    41    58    1
    62    41    59    1
    63    41    60    1
@<TRIPOS>MOLECULE
343297
 60 63 0 0 0
SMALL
GASTEIGER

@<TRIPOS>ATOM
      1 C          -5.0536    2.6578    2.6612 C.3     1  UNL1       -0.0060
      2 C          -5.6057    1.6143    1.7623 C.ar    1  UNL1        0.1089
      3 O          -6.6740    0.8596    2.0188 O.2     1  UNL1       -0.4431
      4 C          -6.9009    0.0328    1.0211 C.ar    1  UNL1        0.2175
      5 C          -5.9391    0.2528    0.0639 C.ar    1  UNL1        0.1065
      6 C          -5.1004    1.2711    0.5348 C.ar    1  UNL1        0.0166
      7 C          -3.9311    1.7830   -0.2109 C.3     1  UNL1        0.0535
      8 C          -2.6415    1.2419    0.3003 C.2     1  UNL1        0.2231
      9 O          -2.2629    1.6105    1.4463 O.2     1  UNL1       -0.2751
     10 N          -1.8438    0.3564   -0.4155 N.am    1  UNL1       -0.2644
     11 C          -0.5507   -0.1681    0.1245 C.ar    1  UNL1        0.1649
     12 N           0.5687    0.0442    0.0907 N.ar    1  UNL1       -0.2246
     13 C           1.5749   -0.5764    0.6831 C.ar    1  UNL1        0.0803
     14 C           3.0114   -0.1874    0.5155 C.ar    1  UNL1        0.0039
     15 C           3.9903   -0.8890    1.1743 C.ar    1  UNL1       -0.0305
     16 C           5.3257   -0.5703    1.0216 C.ar    1  UNL1        0.0846
     17 CL          6.5514   -1.4882    1.8806 Cl      1  UNL1       -0.0797
     18 C           5.7269    0.4728    0.1957 C.ar    1  UNL1        0.1570
     19 O           7.0707    0.8064    0.0301 O.3     1  UNL1       -0.4888
     20 C           7.7146    0.0947   -1.0351 C.3     1  UNL1        0.0920
     21 C           9.1469    0.4823   -1.2006 C.3     1  UNL1       -0.0124
     22 C           9.9669    0.2299    0.0402 C.3     1  UNL1       -0.0596
     23 C           9.7012   -0.3485   -2.3672 C.3     1  UNL1       -0.0596
     24 C           4.7328    1.1671   -0.4574 C.ar    1  UNL1        0.0846
     25 CL          5.2383    2.4923   -1.5081 Cl      1  UNL1       -0.0797
     26 C           3.3945    0.8455   -0.3030 C.ar    1  UNL1       -0.0305
     27 C           1.1928   -1.6464    1.4618 C.ar    1  UNL1        0.0049
     28 S          -0.6421   -1.6366    1.2418 S.2     1  UNL1       -0.0599
     29 C          -5.8819   -0.4410   -1.1071 C.ar    1  UNL1        0.2675
     30 O          -5.0203   -0.2773   -2.0147 O.2     1  UNL1       -0.2667
     31 N          -6.8140   -1.3940   -1.3476 N.ar    1  UNL1       -0.2633
     32 C          -6.7784   -2.1506   -2.5854 C.3     1  UNL1        0.0196
     33 C          -7.7517   -1.6099   -0.4174 C.ar    1  UNL1        0.3341
     34 O          -8.6027   -2.5011   -0.6681 O.2     1  UNL1       -0.2462
     35 N          -7.8093   -0.9171    0.7542 N.ar    1  UNL1       -0.2667
     36 C          -8.8566   -1.2128    1.7099 C.3     1  UNL1        0.0194
     37 H          -4.3103    2.2574    3.3874 H       1  UNL1        0.0308
     38 H          -4.6246    3.5200    2.1429 H       1  UNL1        0.0308
     39 H          -5.8898    3.0554    3.3101 H       1  UNL1        0.0308
     40 H          -4.0468    1.7033   -1.3064 H       1  UNL1        0.0408
     41 H          -3.8490    2.9010   -0.0337 H       1  UNL1        0.0408
     42 H          -2.0797    0.0116   -1.3337 H       1  UNL1        0.1567
     43 H           3.7076   -1.7148    1.8289 H       1  UNL1        0.0640
     44 H           7.6715   -1.0104   -0.8301 H       1  UNL1        0.0699
     45 H           7.1958    0.2426   -2.0068 H       1  UNL1        0.0699
     46 H           9.2678    1.5364   -1.5124 H       1  UNL1        0.0328
     47 H          10.4701    1.1868    0.3338 H       1  UNL1        0.0233
     48 H          10.7391   -0.5605   -0.1383 H       1  UNL1        0.0233
     49 H           9.2942   -0.0318    0.8832 H       1  UNL1        0.0233
     50 H           8.8435   -0.6015   -3.0180 H       1  UNL1        0.0233
     51 H          10.1738   -1.2779   -1.9838 H       1  UNL1        0.0233
     52 H          10.3912    0.2646   -2.9924 H       1  UNL1        0.0233
     53 H           2.6463    1.4162   -0.8346 H       1  UNL1        0.0640
     54 H           1.7234   -2.3695    2.0794 H       1  UNL1        0.0716
     55 H          -6.6286   -3.2245   -2.4281 H       1  UNL1        0.0458
     56 H          -7.7058   -1.9253   -3.1460 H       1  UNL1        0.0458
     57 H          -5.9421   -1.7965   -3.2454 H       1  UNL1        0.0458
     58 H          -9.7979   -1.3812    1.1306 H       1  UNL1        0.0458
     59 H          -8.5652   -2.1555    2.2194 H       1  UNL1        0.0458
     60 H          -8.9319   -0.3472    2.3994 H       1  UNL1        0.0458
@<TRIPOS>BOND
     1     1     2    1
     2     2     3   ar
     3     3     4   ar
     4     4     5   ar
     5     5     6   ar
     6     6     7    1
     7     7     8    1
     8     8     9    2
     9     8    10   am
    10    10    11    1
    11    11    12   ar
    12    12    13   ar
    13    13    14    1
    14    14    15   ar
    15    15    16   ar
    16    16    17    1
    17    16    18   ar
    18    18    19    1
    19    19    20    1
    20    20    21    1
    21    21    22    1
    22    21    23    1
    23    18    24   ar
    24    24    25    1
    25    24    26   ar
    26    13    27   ar
    27    27    28   ar
    28     5    29   ar
    29    29    30    2
    30    29    31   ar
    31    31    32    1
    32    31    33   ar
    33    33    34    2
    34    33    35   ar
    35    35    36    1
    36     6     2   ar
    37    28    11   ar
    38    35     4   ar
    39    26    14   ar
    40     1    37    1
    41     1    38    1
    42     1    39    1
    43     7    40    1
    44     7    41    1
    45    10    42    1
    46    15    43    1
    47    20    44    1
    48    20    45    1
    49    21    46    1
    50    22    47    1
    51    22    48    1
    52    22    49    1
    53    23    50    1
    54    23    51    1
    55    23    52    1
    56    26    53    1
    57    27    54    1
    58    32    55    1
    59    32    56    1
    60    32    57    1
    61    36    58    1
    62    36    59    1
    63    36    60    1
@<TRIPOS>MOLECULE
343294
 50 53 0 0 0
SMALL
GASTEIGER

@<TRIPOS>ATOM
      1 C          -2.9621   -3.3950    0.7329 C.3     1  UNL1       -0.0060
      2 C          -3.6462   -2.1019    0.4528 C.ar    1  UNL1        0.1089
      3 O          -4.8059   -1.9701   -0.1527 O.2     1  UNL1       -0.4431
      4 C          -5.1264   -0.6976   -0.2417 C.ar    1  UNL1        0.2175
      5 C          -4.1284    0.0781    0.3357 C.ar    1  UNL1        0.1065
      6 C          -3.1852   -0.8426    0.7766 C.ar    1  UNL1        0.0166
      7 C          -1.9364   -0.4801    1.4560 C.3     1  UNL1        0.0535
      8 C          -0.7529   -0.5642    0.5895 C.2     1  UNL1        0.2231
      9 O          -0.8792   -0.9242   -0.6227 O.2     1  UNL1       -0.2751
     10 N           0.5468   -0.2595    1.0401 N.am    1  UNL1       -0.2644
     11 C           1.6954   -0.3364    0.2051 C.ar    1  UNL1        0.1649
     12 N           2.8860   -0.1482    0.3116 N.ar    1  UNL1       -0.2246
     13 C           3.7855   -0.2802   -0.6207 C.ar    1  UNL1        0.0804
     14 C           5.2290   -0.0174   -0.3546 C.ar    1  UNL1        0.0064
     15 C           5.6612    0.3688    0.8755 C.ar    1  UNL1       -0.0165
     16 C           7.0000    0.6183    1.1358 C.ar    1  UNL1        0.1384
     17 F           7.4252    1.0018    2.3598 F       1  UNL1       -0.2048
     18 C           7.9525    0.4827    0.1466 C.ar    1  UNL1        0.1249
     19 C           9.3962    0.7535    0.4321 C.3     1  UNL1        0.4227
     20 F          10.1354    0.5527   -0.6958 F       1  UNL1       -0.1657
     21 F           9.8220    0.0589    1.5236 F       1  UNL1       -0.1657
     22 F           9.4535    2.1230    0.7244 F       1  UNL1       -0.1657
     23 C           7.5125    0.0920   -1.0963 C.ar    1  UNL1        0.1384
     24 F           8.4271   -0.0474   -2.0810 F       1  UNL1       -0.2048
     25 C           6.1766   -0.1542   -1.3453 C.ar    1  UNL1       -0.0165
     26 C           3.3884   -0.6663   -1.8513 C.ar    1  UNL1        0.0049
     27 S           1.5526   -0.8249   -1.5290 S.2     1  UNL1       -0.0599
     28 C          -4.2038    1.4547    0.3825 C.ar    1  UNL1        0.2675
     29 O          -3.2954    2.1474    0.9071 O.2     1  UNL1       -0.2667
     30 N          -5.2792    2.0621   -0.1486 N.ar    1  UNL1       -0.2633
     31 C          -5.3353    3.5057   -0.0883 C.3     1  UNL1        0.0196
     32 C          -6.2499    1.3145   -0.7097 C.ar    1  UNL1        0.3341
     33 O          -7.2602    1.9148   -1.2068 O.2     1  UNL1       -0.2462
     34 N          -6.1790   -0.0275   -0.7568 N.ar    1  UNL1       -0.2667
     35 C          -7.2754   -0.7515   -1.3832 C.3     1  UNL1        0.0194
     36 H          -3.6954   -4.2389    0.7476 H       1  UNL1        0.0308
     37 H          -2.2305   -3.6482   -0.0709 H       1  UNL1        0.0308
     38 H          -2.4712   -3.4120    1.7238 H       1  UNL1        0.0308
     39 H          -2.0572    0.4746    1.9652 H       1  UNL1        0.0408
     40 H          -1.7774   -1.2398    2.2770 H       1  UNL1        0.0408
     41 H           0.6832    0.0319    2.0091 H       1  UNL1        0.1567
     42 H           4.9204    0.4824    1.6742 H       1  UNL1        0.0653
     43 H           5.8496   -0.4650   -2.3475 H       1  UNL1        0.0653
     44 H           3.8111   -0.8653   -2.7961 H       1  UNL1        0.0716
     45 H          -6.3450    3.9165   -0.1438 H       1  UNL1        0.0458
     46 H          -4.8646    3.8083    0.8844 H       1  UNL1        0.0458
     47 H          -4.6545    3.8881   -0.8747 H       1  UNL1        0.0458
     48 H          -7.3332   -0.4528   -2.4352 H       1  UNL1        0.0458
     49 H          -8.2498   -0.4879   -0.8780 H       1  UNL1        0.0458
     50 H          -7.1308   -1.8318   -1.2393 H       1  UNL1        0.0458
@<TRIPOS>BOND
     1     1     2    1
     2     2     3   ar
     3     3     4   ar
     4     4     5   ar
     5     5     6   ar
     6     6     7    1
     7     7     8    1
     8     8     9    2
     9     8    10   am
    10    10    11    1
    11    11    12   ar
    12    12    13   ar
    13    13    14    1
    14    14    15   ar
    15    15    16   ar
    16    16    17    1
    17    16    18   ar
    18    18    19    1
    19    19    20    1
    20    19    21    1
    21    19    22    1
    22    18    23   ar
    23    23    24    1
    24    23    25   ar
    25    13    26   ar
    26    26    27   ar
    27     5    28   ar
    28    28    29    2
    29    28    30   ar
    30    30    31    1
    31    30    32   ar
    32    32    33    2
    33    32    34   ar
    34    34    35    1
    35     6     2   ar
    36    27    11   ar
    37    34     4   ar
    38    25    14   ar
    39     1    36    1
    40     1    37    1
    41     1    38    1
    42     7    39    1
    43     7    40    1
    44    10    41    1
    45    15    42    1
    46    25    43    1
    47    26    44    1
    48    31    45    1
    49    31    46    1
    50    31    47    1
    51    35    48    1
    52    35    49    1
    53    35    50    1
@<TRIPOS>MOLECULE
343288
 63 66 0 0 0
SMALL
GASTEIGER

@<TRIPOS>ATOM
      1 C          -3.8573    2.1879   -2.2231 C.3     1  UNL1       -0.0060
      2 C          -4.8166    1.3044   -1.4955 C.ar    1  UNL1        0.1089
      3 O          -5.6926    0.5251   -2.0785 O.2     1  UNL1       -0.4431
      4 C          -6.3982   -0.1329   -1.1804 C.ar    1  UNL1        0.2175
      5 C          -5.9650    0.2312    0.0836 C.ar    1  UNL1        0.1065
      6 C          -4.9519    1.1522   -0.1280 C.ar    1  UNL1        0.0166
      7 C          -4.1773    1.8307    0.9149 C.3     1  UNL1        0.0535
      8 C          -2.8138    1.2654    1.0692 C.2     1  UNL1        0.2231
      9 O          -2.4433    0.3091    0.3500 O.2     1  UNL1       -0.2751
     10 N          -1.9054    1.7864    2.0228 N.am    1  UNL1       -0.2644
     11 C          -0.5865    1.2080    2.1427 C.ar    1  UNL1        0.1649
     12 N           0.5143    1.2627    1.7600 N.ar    1  UNL1       -0.2246
     13 C           1.5670    0.5616    2.0741 C.ar    1  UNL1        0.0804
     14 C           2.9077    0.7103    1.5336 C.ar    1  UNL1        0.0066
     15 C           3.2022    1.6770    0.5703 C.ar    1  UNL1       -0.0134
     16 C           4.4676    1.8331    0.0487 C.ar    1  UNL1        0.1683
     17 F           4.6592    2.8089   -0.8928 F       1  UNL1       -0.2015
     18 C           5.5131    1.0254    0.4654 C.ar    1  UNL1        0.1907
     19 O           6.7634    1.1963   -0.0626 O.3     1  UNL1       -0.4858
     20 C           7.3323    0.6498   -1.1922 C.3     1  UNL1        0.0947
     21 C           7.4621   -0.8279   -1.2766 C.3     1  UNL1       -0.0036
     22 C           8.1158   -1.1073   -2.6502 C.3     1  UNL1       -0.0570
     23 C           6.1666   -1.5867   -1.2777 C.3     1  UNL1       -0.0570
     24 C           8.4024   -1.4278   -0.2482 C.3     1  UNL1       -0.0570
     25 C           5.2598    0.0726    1.4044 C.ar    1  UNL1        0.1683
     26 F           6.2080   -0.7523    1.8847 F       1  UNL1       -0.2015
     27 C           3.9647   -0.0701    1.9224 C.ar    1  UNL1       -0.0134
     28 C           1.2830   -0.4309    3.0560 C.ar    1  UNL1        0.0049
     29 S          -0.4148   -0.2336    3.3919 S.2     1  UNL1       -0.0599
     30 C          -6.5509   -0.3234    1.2012 C.ar    1  UNL1        0.2675
     31 O          -6.1677   -0.0016    2.3507 O.2     1  UNL1       -0.2667
     32 N          -7.5433   -1.2188    1.0851 N.ar    1  UNL1       -0.2633
     33 C          -8.1913   -1.8308    2.2261 C.3     1  UNL1        0.0196
     34 C          -7.9648   -1.5729   -0.1525 C.ar    1  UNL1        0.3341
     35 O          -8.8974   -2.4145   -0.2621 O.2     1  UNL1       -0.2462
     36 N          -7.3934   -1.0318   -1.2374 N.ar    1  UNL1       -0.2667
     37 C          -7.8710   -1.4338   -2.5521 C.3     1  UNL1        0.0194
     38 H          -2.8553    1.7347   -2.3110 H       1  UNL1        0.0308
     39 H          -3.7273    3.1464   -1.6634 H       1  UNL1        0.0308
     40 H          -4.2724    2.4787   -3.2169 H       1  UNL1        0.0308
     41 H          -4.7385    1.7753    1.8754 H       1  UNL1        0.0408
     42 H          -4.0910    2.9335    0.6802 H       1  UNL1        0.0408
     43 H          -2.1805    2.5762    2.6314 H       1  UNL1        0.1567
     44 H           2.3706    2.3032    0.2534 H       1  UNL1        0.0654
     45 H           8.3918    1.0549   -1.2471 H       1  UNL1        0.0702
     46 H           6.8647    0.9991   -2.1460 H       1  UNL1        0.0702
     47 H           7.5065   -0.6317   -3.4465 H       1  UNL1        0.0236
     48 H           9.1166   -0.5990   -2.6115 H       1  UNL1        0.0236
     49 H           8.2608   -2.1773   -2.7888 H       1  UNL1        0.0236
     50 H           6.0797   -2.2162   -0.3692 H       1  UNL1        0.0236
     51 H           5.3113   -0.8812   -1.3249 H       1  UNL1        0.0236
     52 H           6.0679   -2.2741   -2.1505 H       1  UNL1        0.0236
     53 H           7.9850   -2.3489    0.1952 H       1  UNL1        0.0236
     54 H           9.3804   -1.7051   -0.6886 H       1  UNL1        0.0236
     55 H           8.5570   -0.6585    0.5603 H       1  UNL1        0.0236
     56 H           3.8157   -0.8292    2.6539 H       1  UNL1        0.0654
     57 H           2.0212   -1.1557    3.4865 H       1  UNL1        0.0716
     58 H          -9.0560   -1.2262    2.5583 H       1  UNL1        0.0458
     59 H          -7.4507   -1.9690    3.0526 H       1  UNL1        0.0458
     60 H          -8.5480   -2.8388    1.9345 H       1  UNL1        0.0458
     61 H          -8.9836   -1.4272   -2.5225 H       1  UNL1        0.0458
     62 H          -7.4842   -0.7821   -3.3370 H       1  UNL1        0.0458
     63 H          -7.5282   -2.4825   -2.7034 H       1  UNL1        0.0458
@<TRIPOS>BOND
     1     1     2    1
     2     2     3   ar
     3     3     4   ar
     4     4     5   ar
     5     5     6   ar
     6     6     7    1
     7     7     8    1
     8     8     9    2
     9     8    10   am
    10    10    11    1
    11    11    12   ar
    12    12    13   ar
    13    13    14    1
    14    14    15   ar
    15    15    16   ar
    16    16    17    1
    17    16    18   ar
    18    18    19    1
    19    19    20    1
    20    20    21    1
    21    21    22    1
    22    21    23    1
    23    21    24    1
    24    18    25   ar
    25    25    26    1
    26    25    27   ar
    27    13    28   ar
    28    28    29   ar
    29     5    30   ar
    30    30    31    2
    31    30    32   ar
    32    32    33    1
    33    32    34   ar
    34    34    35    2
    35    34    36   ar
    36    36    37    1
    37     6     2   ar
    38    29    11   ar
    39    36     4   ar
    40    27    14   ar
    41     1    38    1
    42     1    39    1
    43     1    40    1
    44     7    41    1
    45     7    42    1
    46    10    43    1
    47    15    44    1
    48    20    45    1
    49    20    46    1
    50    22    47    1
    51    22    48    1
    52    22    49    1
    53    23    50    1
    54    23    51    1
    55    23    52    1
    56    24    53    1
    57    24    54    1
    58    24    55    1
    59    27    56    1
    60    28    57    1
    61    33    58    1
    62    33    59    1
    63    33    60    1
    64    37    61    1
    65    37    62    1
    66    37    63    1
@<TRIPOS>MOLECULE
343284
 54 57 0 0 0
SMALL
GASTEIGER

@<TRIPOS>ATOM
      1 C          -3.5793   -2.7493    2.3113 C.3     1  UNL1       -0.0060
      2 C          -4.3629   -1.7506    1.5010 C.ar    1  UNL1        0.1089
      3 O          -5.4950   -1.1878    1.8288 O.2     1  UNL1       -0.4431
      4 C          -5.9175   -0.3579    0.8958 C.ar    1  UNL1        0.2175
      5 C          -5.0105   -0.3533   -0.1427 C.ar    1  UNL1        0.1065
      6 C          -4.0202   -1.2501    0.2594 C.ar    1  UNL1        0.0166
      7 C          -2.8246   -1.5866   -0.5182 C.3     1  UNL1        0.0535
      8 C          -1.6387   -0.9056    0.0333 C.2     1  UNL1        0.2231
      9 O          -1.7763   -0.1713    1.0407 O.2     1  UNL1       -0.2751
     10 N          -0.3394   -1.0350   -0.5166 N.am    1  UNL1       -0.2644
     11 C           0.7867   -0.3671    0.0329 C.ar    1  UNL1        0.1649
     12 N           1.9854   -0.2452   -0.1694 N.ar    1  UNL1       -0.2246
     13 C           2.8570    0.4455    0.4863 C.ar    1  UNL1        0.0804
     14 C           4.3132    0.5048    0.1118 C.ar    1  UNL1        0.0066
     15 C           5.1664    1.2666    0.8689 C.ar    1  UNL1       -0.0134
     16 C           6.5134    1.3426    0.5412 C.ar    1  UNL1        0.1683
     17 F           7.3353    2.1002    1.3024 F       1  UNL1       -0.2015
     18 C           7.0338    0.6657   -0.5401 C.ar    1  UNL1        0.1909
     19 O           8.3371    0.6842   -0.9327 O.3     1  UNL1       -0.4773
     20 C           9.3569   -0.1743   -0.5294 C.3     1  UNL1        0.1844
     21 C          10.6833    0.1640   -1.1969 C.3     1  UNL1        0.4236
     22 F          10.5717    0.0656   -2.5700 F       1  UNL1       -0.1671
     23 F          11.6692   -0.7084   -0.7834 F       1  UNL1       -0.1671
     24 F          11.1067    1.4431   -0.8760 F       1  UNL1       -0.1671
     25 C           6.1407   -0.0944   -1.2817 C.ar    1  UNL1        0.1683
     26 F           6.5762   -0.7996   -2.3732 F       1  UNL1       -0.2015
     27 C           4.8086   -0.1751   -0.9651 C.ar    1  UNL1       -0.0134
     28 C           2.3580    1.1504    1.5787 C.ar    1  UNL1        0.0049
     29 S           0.6086    0.7114    1.5258 S.2     1  UNL1       -0.0599
     30 C          -5.2159    0.4370   -1.2545 C.ar    1  UNL1        0.2675
     31 O          -4.3807    0.4297   -2.1909 O.2     1  UNL1       -0.2667
     32 N          -6.3109    1.2180   -1.3396 N.ar    1  UNL1       -0.2633
     33 C          -6.5888    2.0726   -2.4786 C.3     1  UNL1        0.0196
     34 C          -7.1786    1.1955   -0.3154 C.ar    1  UNL1        0.3341
     35 O          -8.2183    1.9335   -0.3899 O.2     1  UNL1       -0.2462
     36 N          -7.0013    0.4346    0.7782 N.ar    1  UNL1       -0.2667
     37 C          -7.9756    0.4514    1.8564 C.3     1  UNL1        0.0194
     38 H          -2.8740   -2.2495    3.0047 H       1  UNL1        0.0308
     39 H          -4.2502   -3.4217    2.8847 H       1  UNL1        0.0308
     40 H          -2.9876   -3.3832    1.6279 H       1  UNL1        0.0308
     41 H          -2.6427   -2.6814   -0.4304 H       1  UNL1        0.0408
     42 H          -2.9669   -1.3278   -1.5978 H       1  UNL1        0.0408
     43 H          -0.2097   -1.6386   -1.3479 H       1  UNL1        0.1567
     44 H           4.8035    1.8245    1.7399 H       1  UNL1        0.0654
     45 H           9.1740   -1.2384   -0.7030 H       1  UNL1        0.0788
     46 H           9.5354   -0.0138    0.5665 H       1  UNL1        0.0788
     47 H           4.1332   -0.7839   -1.5714 H       1  UNL1        0.0654
     48 H           2.8346    1.8294    2.3393 H       1  UNL1        0.0716
     49 H          -7.5858    1.7924   -2.9287 H       1  UNL1        0.0458
     50 H          -5.8483    1.9385   -3.2885 H       1  UNL1        0.0458
     51 H          -6.6930    3.1466   -2.1839 H       1  UNL1        0.0458
     52 H          -8.9646    0.7491    1.4077 H       1  UNL1        0.0458
     53 H          -7.7540    1.2144    2.6275 H       1  UNL1        0.0458
     54 H          -8.0777   -0.5614    2.2651 H       1  UNL1        0.0458
@<TRIPOS>BOND
     1     1     2    1
     2     2     3   ar
     3     3     4   ar
     4     4     5   ar
     5     5     6   ar
     6     6     7    1
     7     7     8    1
     8     8     9    2
     9     8    10   am
    10    10    11    1
    11    11    12   ar
    12    12    13   ar
    13    13    14    1
    14    14    15   ar
    15    15    16   ar
    16    16    17    1
    17    16    18   ar
    18    18    19    1
    19    19    20    1
    20    20    21    1
    21    21    22    1
    22    21    23    1
    23    21    24    1
    24    18    25   ar
    25    25    26    1
    26    25    27   ar
    27    13    28   ar
    28    28    29   ar
    29     5    30   ar
    30    30    31    2
    31    30    32   ar
    32    32    33    1
    33    32    34   ar
    34    34    35    2
    35    34    36   ar
    36    36    37    1
    37     6     2   ar
    38    29    11   ar
    39    36     4   ar
    40    27    14   ar
    41     1    38    1
    42     1    39    1
    43     1    40    1
    44     7    41    1
    45     7    42    1
    46    10    43    1
    47    15    44    1
    48    20    45    1
    49    20    46    1
    50    27    47    1
    51    28    48    1
    52    33    49    1
    53    33    50    1
    54    33    51    1
    55    37    52    1
    56    37    53    1
    57    37    54    1
@<TRIPOS>MOLECULE
343283
 50 53 0 0 0
SMALL
GASTEIGER

@<TRIPOS>ATOM
      1 C          -1.8536   -1.1332   -2.8133 C.3     1  UNL1       -0.0060
      2 C          -2.8073   -0.6382   -1.7813 C.ar    1  UNL1        0.1089
      3 O          -3.7277    0.2894   -1.8640 O.2     1  UNL1       -0.4431
      4 C          -4.3697    0.4405   -0.7323 C.ar    1  UNL1        0.2175
      5 C          -3.8613   -0.4421    0.2022 C.ar    1  UNL1        0.1065
      6 C          -2.8687   -1.1267   -0.4679 C.ar    1  UNL1        0.0166
      7 C          -2.0465   -2.1824    0.1017 C.3     1  UNL1        0.0535
      8 C          -0.6812   -1.6925    0.4222 C.2     1  UNL1        0.2231
      9 O          -0.5338   -0.7313    1.2239 O.2     1  UNL1       -0.2751
     10 N           0.4771   -2.2951   -0.1640 N.am    1  UNL1       -0.2644
     11 C           1.7959   -1.8415    0.1469 C.ar    1  UNL1        0.1649
     12 N           2.6370   -1.0583   -0.1392 N.ar    1  UNL1       -0.2246
     13 C           3.8258   -0.8777    0.3164 C.ar    1  UNL1        0.0803
     14 C           4.8074    0.1527   -0.1134 C.ar    1  UNL1        0.0042
     15 C           4.4741    1.0548   -1.0983 C.ar    1  UNL1       -0.0172
     16 C           5.3524    2.0229   -1.5438 C.ar    1  UNL1        0.1246
     17 F           5.0352    2.9125   -2.5068 F       1  UNL1       -0.2055
     18 C           6.5920    2.0594   -0.9647 C.ar    1  UNL1       -0.0148
     19 C           6.9840    1.1939    0.0152 C.ar    1  UNL1        0.0581
     20 C           8.3341    1.2419    0.6288 C.3     1  UNL1        0.4175
     21 F           8.3548    2.1075    1.6865 F       1  UNL1       -0.1659
     22 F           9.2041    1.7459   -0.3510 F       1  UNL1       -0.1659
     23 F           8.8240    0.0105    0.9591 F       1  UNL1       -0.1659
     24 C           6.0604    0.2313    0.4343 C.ar    1  UNL1       -0.0407
     25 C           4.1856   -1.8096    1.3707 C.ar    1  UNL1        0.0049
     26 S           2.7411   -2.7660    1.5019 S.2     1  UNL1       -0.0599
     27 C          -4.3980   -0.4494    1.4704 C.ar    1  UNL1        0.2675
     28 O          -3.9289   -1.2539    2.3072 O.2     1  UNL1       -0.2667
     29 N          -5.4023    0.3768    1.8252 N.ar    1  UNL1       -0.2633
     30 C          -5.9734    0.3801    3.1618 C.3     1  UNL1        0.0196
     31 C          -5.8787    1.2254    0.8967 C.ar    1  UNL1        0.3341
     32 O          -6.8313    2.0334    1.1755 O.2     1  UNL1       -0.2462
     33 N          -5.3806    1.2621   -0.3516 N.ar    1  UNL1       -0.2667
     34 C          -5.9093    2.1853   -1.3609 C.3     1  UNL1        0.0194
     35 H          -2.3744   -1.3386   -3.7800 H       1  UNL1        0.0308
     36 H          -1.4226   -2.0842   -2.4986 H       1  UNL1        0.0308
     37 H          -1.0531   -0.3977   -3.0282 H       1  UNL1        0.0308
     38 H          -1.9493   -3.0746   -0.5838 H       1  UNL1        0.0408
     39 H          -2.4715   -2.5710    1.0478 H       1  UNL1        0.0408
     40 H           0.3094   -3.0886   -0.8333 H       1  UNL1        0.1567
     41 H           3.5030    1.0124   -1.5360 H       1  UNL1        0.0653
     42 H           7.2846    2.8266   -1.3197 H       1  UNL1        0.0652
     43 H           6.3679   -0.4552    1.2100 H       1  UNL1        0.0630
     44 H           5.0981   -1.8462    1.8796 H       1  UNL1        0.0716
     45 H          -5.2091   -0.1137    3.8229 H       1  UNL1        0.0458
     46 H          -6.2001    1.4071    3.5099 H       1  UNL1        0.0458
     47 H          -6.8775   -0.2555    3.2410 H       1  UNL1        0.0458
     48 H          -6.3314    3.0402   -0.7916 H       1  UNL1        0.0458
     49 H          -5.1449    2.5828   -2.0291 H       1  UNL1        0.0458
     50 H          -6.7619    1.7280   -1.9059 H       1  UNL1        0.0458
@<TRIPOS>BOND
     1     1     2    1
     2     2     3   ar
     3     3     4   ar
     4     4     5   ar
     5     5     6   ar
     6     6     7    1
     7     7     8    1
     8     8     9    2
     9     8    10   am
    10    10    11    1
    11    11    12   ar
    12    12    13   ar
    13    13    14    1
    14    14    15   ar
    15    15    16   ar
    16    16    17    1
    17    16    18   ar
    18    18    19   ar
    19    19    20    1
    20    20    21    1
    21    20    22    1
    22    20    23    1
    23    19    24   ar
    24    13    25   ar
    25    25    26   ar
    26     5    27   ar
    27    27    28    2
    28    27    29   ar
    29    29    30    1
    30    29    31   ar
    31    31    32    2
    32    31    33   ar
    33    33    34    1
    34     6     2   ar
    35    26    11   ar
    36    33     4   ar
    37    24    14   ar
    38     1    35    1
    39     1    36    1
    40     1    37    1
    41     7    38    1
    42     7    39    1
    43    10    40    1
    44    15    41    1
    45    18    42    1
    46    24    43    1
    47    25    44    1
    48    30    45    1
    49    30    46    1
    50    30    47    1
    51    34    48    1
    52    34    49    1
    53    34    50    1
@<TRIPOS>MOLECULE
343298
 50 53 0 0 0
SMALL
GASTEIGER

@<TRIPOS>ATOM
      1 C          -3.2410   -3.4274   -0.8788 C.3     1  UNL1       -0.0060
      2 C          -3.6279   -2.0954   -0.3779 C.ar    1  UNL1        0.1089
      3 O          -4.6472   -1.3986   -0.8384 O.2     1  UNL1       -0.4431
      4 C          -4.7718   -0.2609   -0.2286 C.ar    1  UNL1        0.2175
      5 C          -3.7499   -0.2042    0.7109 C.ar    1  UNL1        0.1065
      6 C          -3.0107   -1.3679    0.6283 C.ar    1  UNL1        0.0166
      7 C          -1.8268   -1.7435    1.4311 C.3     1  UNL1        0.0535
      8 C          -0.5472   -1.5820    0.7013 C.2     1  UNL1        0.2231
      9 O          -0.5137   -1.1582   -0.4668 O.2     1  UNL1       -0.2751
     10 N           0.6599   -1.9161    1.3465 N.am    1  UNL1       -0.2644
     11 C           1.9410   -1.7522    0.6207 C.ar    1  UNL1        0.1649
     12 N           2.7911   -1.0560    0.3973 N.ar    1  UNL1       -0.2245
     13 C           3.8793   -1.1835   -0.3416 C.ar    1  UNL1        0.0831
     14 C           4.9391   -0.1553   -0.5452 C.ar    1  UNL1        0.0390
     15 C           6.0173   -0.4183   -1.3509 C.ar    1  UNL1       -0.0491
     16 C           6.9887    0.5461   -1.5241 C.ar    1  UNL1       -0.0465
     17 C           6.9256    1.7766   -0.9179 C.ar    1  UNL1        0.0928
     18 C           7.9973    2.8037   -1.1219 C.3     1  UNL1        0.4202
     19 F           7.4369    3.9382   -1.6737 F       1  UNL1       -0.1658
     20 F           8.6009    3.0466    0.0939 F       1  UNL1       -0.1658
     21 F           8.9693    2.3019   -1.9722 F       1  UNL1       -0.1658
     22 C           5.8266    2.0308   -0.1036 C.ar    1  UNL1        0.1707
     23 F           5.7294    3.2378    0.5126 F       1  UNL1       -0.2019
     24 C           4.8624    1.0700    0.0668 C.ar    1  UNL1        0.1681
     25 F           3.7727    1.3084    0.8684 F       1  UNL1       -0.2018
     26 C           3.9814   -2.4070   -0.9500 C.ar    1  UNL1        0.0050
     27 S           2.4777   -3.2855   -0.3978 S.2     1  UNL1       -0.0599
     28 C          -3.6643    0.9230    1.4986 C.ar    1  UNL1        0.2675
     29 O          -2.7439    0.9862    2.3522 O.2     1  UNL1       -0.2667
     30 N          -4.5651    1.9265    1.3363 N.ar    1  UNL1       -0.2633
     31 C          -4.4716    3.1109    2.1634 C.3     1  UNL1        0.0196
     32 C          -5.5279    1.8089    0.4111 C.ar    1  UNL1        0.3341
     33 O          -6.3685    2.7541    0.2657 O.2     1  UNL1       -0.2462
     34 N          -5.6636    0.7425   -0.3826 N.ar    1  UNL1       -0.2667
     35 C          -6.7268    0.6707   -1.3663 C.3     1  UNL1        0.0194
     36 H          -4.1276   -3.9106   -1.3537 H       1  UNL1        0.0308
     37 H          -2.4659   -3.3996   -1.6684 H       1  UNL1        0.0308
     38 H          -2.9641   -4.1327   -0.0407 H       1  UNL1        0.0308
     39 H          -1.7488   -1.2118    2.3758 H       1  UNL1        0.0408
     40 H          -1.8735   -2.8415    1.6974 H       1  UNL1        0.0408
     41 H           0.7004   -2.2789    2.3244 H       1  UNL1        0.1567
     42 H           6.1203   -1.3875   -1.8626 H       1  UNL1        0.0625
     43 H           7.8640    0.3588   -2.1650 H       1  UNL1        0.0624
     44 H           4.7425   -2.8596   -1.6285 H       1  UNL1        0.0716
     45 H          -4.6742    2.7818    3.2145 H       1  UNL1        0.0458
     46 H          -5.2318    3.8332    1.8161 H       1  UNL1        0.0458
     47 H          -3.4642    3.5794    2.0810 H       1  UNL1        0.0458
     48 H          -7.5675    0.0718   -0.9146 H       1  UNL1        0.0458
     49 H          -6.3145    0.1534   -2.2683 H       1  UNL1        0.0458
     50 H          -7.1237    1.6727   -1.5755 H       1  UNL1        0.0458
@<TRIPOS>BOND
     1     1     2    1
     2     2     3   ar
     3     3     4   ar
     4     4     5   ar
     5     5     6   ar
     6     6     7    1
     7     7     8    1
     8     8     9    2
     9     8    10   am
    10    10    11    1
    11    11    12   ar
    12    12    13   ar
    13    13    14    1
    14    14    15   ar
    15    15    16   ar
    16    16    17   ar
    17    17    18    1
    18    18    19    1
    19    18    20    1
    20    18    21    1
    21    17    22   ar
    22    22    23    1
    23    22    24   ar
    24    24    25    1
    25    13    26   ar
    26    26    27   ar
    27     5    28   ar
    28    28    29    2
    29    28    30   ar
    30    30    31    1
    31    30    32   ar
    32    32    33    2
    33    32    34   ar
    34    34    35    1
    35     6     2   ar
    36    27    11   ar
    37    34     4   ar
    38    24    14   ar
    39     1    36    1
    40     1    37    1
    41     1    38    1
    42     7    39    1
    43     7    40    1
    44    10    41    1
    45    15    42    1
    46    16    43    1
    47    26    44    1
    48    31    45    1
    49    31    46    1
    50    31    47    1
    51    35    48    1
    52    35    49    1
    53    35    50    1
@<TRIPOS>MOLECULE
343287
 50 53 0 0 0
SMALL
GASTEIGER

@<TRIPOS>ATOM
      1 C          -1.4381   -0.8100   -2.3567 C.3     1  UNL1       -0.0060
      2 C          -2.5612   -0.4315   -1.4546 C.ar    1  UNL1        0.1089
      3 O          -3.5094    0.4665   -1.7503 O.2     1  UNL1       -0.4431
      4 C          -4.3555    0.5690   -0.7405 C.ar    1  UNL1        0.2175
      5 C          -3.9752   -0.2795    0.2641 C.ar    1  UNL1        0.1065
      6 C          -2.8178   -0.9196   -0.1981 C.ar    1  UNL1        0.0166
      7 C          -2.1045   -1.8635    0.6690 C.3     1  UNL1        0.0535
      8 C          -0.7174   -2.1788    0.2487 C.2     1  UNL1        0.2231
      9 O          -0.5015   -3.0862   -0.5791 O.2     1  UNL1       -0.2751
     10 N           0.3636   -1.4555    0.7713 N.am    1  UNL1       -0.2644
     11 C           1.7363   -1.6723    0.4343 C.ar    1  UNL1        0.1649
     12 N           2.7407   -1.0414    0.3917 N.ar    1  UNL1       -0.2245
     13 C           3.9419   -1.4157    0.0855 C.ar    1  UNL1        0.0830
     14 C           5.0775   -0.4464    0.0167 C.ar    1  UNL1        0.0361
     15 C           4.8402    0.9109    0.2217 C.ar    1  UNL1       -0.0493
     16 C           5.8172    1.8563    0.1269 C.ar    1  UNL1       -0.0493
     17 C           7.1119    1.4804   -0.1854 C.ar    1  UNL1        0.0576
     18 C           8.1148    2.5676   -0.2969 C.3     1  UNL1        0.4175
     19 F           9.3734    2.1131   -0.5478 F       1  UNL1       -0.1659
     20 F           8.0627    3.4078    0.8063 F       1  UNL1       -0.1659
     21 F           7.7057    3.3697   -1.3854 F       1  UNL1       -0.1659
     22 C           7.3710    0.1526   -0.3901 C.ar    1  UNL1       -0.0142
     23 C           6.3570   -0.8123   -0.2899 C.ar    1  UNL1        0.1331
     24 F           6.7006   -2.1027   -0.4997 F       1  UNL1       -0.2048
     25 C           4.1029   -2.7581   -0.2445 C.ar    1  UNL1        0.0050
     26 S           2.3821   -3.3464   -0.0622 S.2     1  UNL1       -0.0599
     27 C          -4.7182   -0.3490    1.4334 C.ar    1  UNL1        0.2675
     28 O          -4.3678   -1.1266    2.3467 O.2     1  UNL1       -0.2667
     29 N          -5.8176    0.4036    1.6160 N.ar    1  UNL1       -0.2633
     30 C          -6.6153    0.3529    2.8150 C.3     1  UNL1        0.0196
     31 C          -6.1795    1.2381    0.6181 C.ar    1  UNL1        0.3341
     32 O          -7.2175    1.9738    0.7506 O.2     1  UNL1       -0.2462
     33 N          -5.4659    1.3222   -0.5384 N.ar    1  UNL1       -0.2667
     34 C          -5.8436    2.2404   -1.6057 C.3     1  UNL1        0.0194
     35 H          -1.4896   -1.8545   -2.7042 H       1  UNL1        0.0308
     36 H          -1.5592   -0.2108   -3.3176 H       1  UNL1        0.0308
     37 H          -0.4829   -0.4764   -1.9442 H       1  UNL1        0.0308
     38 H          -2.6656   -2.8098    0.8002 H       1  UNL1        0.0408
     39 H          -2.0183   -1.4093    1.6774 H       1  UNL1        0.0408
     40 H           0.1933   -0.7009    1.4625 H       1  UNL1        0.1567
     41 H           3.8445    1.2340    0.4718 H       1  UNL1        0.0625
     42 H           5.5784    2.9157    0.2985 H       1  UNL1        0.0623
     43 H           8.3734   -0.1501   -0.6362 H       1  UNL1        0.0652
     44 H           4.9086   -3.3646   -0.5285 H       1  UNL1        0.0716
     45 H          -6.0516    0.7578    3.6882 H       1  UNL1        0.0458
     46 H          -6.8964   -0.6783    3.1017 H       1  UNL1        0.0458
     47 H          -7.5424    0.9311    2.7021 H       1  UNL1        0.0458
     48 H          -6.5326    3.0167   -1.1632 H       1  UNL1        0.0458
     49 H          -4.9626    2.8042   -1.9886 H       1  UNL1        0.0458
     50 H          -6.2903    1.6658   -2.4119 H       1  UNL1        0.0458
@<TRIPOS>BOND
     1     1     2    1
     2     2     3   ar
     3     3     4   ar
     4     4     5   ar
     5     5     6   ar
     6     6     7    1
     7     7     8    1
     8     8     9    2
     9     8    10   am
    10    10    11    1
    11    11    12   ar
    12    12    13   ar
    13    13    14    1
    14    14    15   ar
    15    15    16   ar
    16    16    17   ar
    17    17    18    1
    18    18    19    1
    19    18    20    1
    20    18    21    1
    21    17    22   ar
    22    22    23   ar
    23    23    24    1
    24    13    25   ar
    25    25    26   ar
    26     5    27   ar
    27    27    28    2
    28    27    29   ar
    29    29    30    1
    30    29    31   ar
    31    31    32    2
    32    31    33   ar
    33    33    34    1
    34     6     2   ar
    35    26    11   ar
    36    33     4   ar
    37    23    14   ar
    38     1    35    1
    39     1    36    1
    40     1    37    1
    41     7    38    1
    42     7    39    1
    43    10    40    1
    44    15    41    1
    45    16    42    1
    46    22    43    1
    47    25    44    1
    48    30    45    1
    49    30    46    1
    50    30    47    1
    51    34    48    1
    52    34    49    1
    53    34    50    1
@<TRIPOS>MOLECULE
343293
 50 53 0 0 0
SMALL
GASTEIGER

@<TRIPOS>ATOM
      1 C          -2.1920    0.3164   -3.0616 C.3     1  UNL1       -0.0060
      2 C          -3.0812    0.2748   -1.8479 C.ar    1  UNL1        0.1089
      3 O          -4.0906    1.0650   -1.5748 O.2     1  UNL1       -0.4431
      4 C          -4.6566    0.7571   -0.4310 C.ar    1  UNL1        0.2175
      5 C          -3.9917   -0.3180    0.1203 C.ar    1  UNL1        0.1065
      6 C          -2.9963   -0.6092   -0.7926 C.ar    1  UNL1        0.0166
      7 C          -1.9964   -1.6920   -0.6579 C.3     1  UNL1        0.0535
      8 C          -0.6593   -1.1340   -0.2490 C.2     1  UNL1        0.2231
      9 O          -0.4786    0.0977   -0.0622 O.2     1  UNL1       -0.2751
     10 N           0.4545   -2.0003   -0.0592 N.am    1  UNL1       -0.2644
     11 C           1.7352   -1.4964    0.3312 C.ar    1  UNL1        0.1649
     12 N           2.7280   -1.0975   -0.0990 N.ar    1  UNL1       -0.2246
     13 C           3.8122   -0.6698    0.4965 C.ar    1  UNL1        0.0802
     14 C           5.0425   -0.1689   -0.1824 C.ar    1  UNL1        0.0016
     15 C           5.1178   -0.1229   -1.5553 C.ar    1  UNL1       -0.0511
     16 C           6.2277    0.3344   -2.2445 C.ar    1  UNL1       -0.0422
     17 C           7.3235    0.7700   -1.5278 C.ar    1  UNL1        0.0526
     18 CL          8.7664    1.3635   -2.3196 Cl      1  UNL1       -0.0830
     19 C           7.2675    0.7316   -0.1572 C.ar    1  UNL1        0.0737
     20 C           8.4391    1.1990    0.6094 C.3     1  UNL1        0.4188
     21 F           8.7272    2.5375    0.3313 F       1  UNL1       -0.1658
     22 F           9.5631    0.4147    0.3271 F       1  UNL1       -0.1658
     23 F           8.1837    1.0824    1.9521 F       1  UNL1       -0.1658
     24 C           6.1385    0.2667    0.5148 C.ar    1  UNL1       -0.0395
     25 C           3.7783   -0.6943    1.8721 C.ar    1  UNL1        0.0049
     26 S           2.1026   -1.3647    2.1834 S.2     1  UNL1       -0.0599
     27 C          -4.3976   -0.8354    1.3321 C.ar    1  UNL1        0.2675
     28 O          -3.7810   -1.8087    1.8117 O.2     1  UNL1       -0.2667
     29 N          -5.4426   -0.3065    1.9967 N.ar    1  UNL1       -0.2633
     30 C          -5.8861   -0.8424    3.2829 C.3     1  UNL1        0.0196
     31 C          -6.0674    0.7473    1.4214 C.ar    1  UNL1        0.3341
     32 O          -7.0655    1.2891    2.0080 O.2     1  UNL1       -0.2462
     33 N          -5.6962    1.2740    0.2426 N.ar    1  UNL1       -0.2667
     34 C          -6.4079    2.4135   -0.3316 C.3     1  UNL1        0.0194
     35 H          -1.7405   -0.6718   -3.2493 H       1  UNL1        0.0308
     36 H          -2.7958    0.5645   -3.9793 H       1  UNL1        0.0308
     37 H          -1.4145    1.0708   -2.9656 H       1  UNL1        0.0308
     38 H          -1.9298   -2.2239   -1.6274 H       1  UNL1        0.0408
     39 H          -2.2863   -2.4337    0.1015 H       1  UNL1        0.0408
     40 H           0.2777   -3.0211   -0.2221 H       1  UNL1        0.1567
     41 H           4.2633   -0.4629   -2.1344 H       1  UNL1        0.0625
     42 H           6.2831    0.3697   -3.3270 H       1  UNL1        0.0632
     43 H           6.1103    0.2424    1.6022 H       1  UNL1        0.0630
     44 H           4.4718   -0.4242    2.6354 H       1  UNL1        0.0716
     45 H          -6.6306   -0.1476    3.7052 H       1  UNL1        0.0458
     46 H          -6.4085   -1.8239    3.1432 H       1  UNL1        0.0458
     47 H          -5.0164   -1.0243    3.9244 H       1  UNL1        0.0458
     48 H          -6.5564    3.1249    0.5254 H       1  UNL1        0.0458
     49 H          -5.7649    2.9627   -1.0504 H       1  UNL1        0.0458
     50 H          -7.3832    2.1246   -0.7630 H       1  UNL1        0.0458
@<TRIPOS>BOND
     1     1     2    1
     2     2     3   ar
     3     3     4   ar
     4     4     5   ar
     5     5     6   ar
     6     6     7    1
     7     7     8    1
     8     8     9    2
     9     8    10   am
    10    10    11    1
    11    11    12   ar
    12    12    13   ar
    13    13    14    1
    14    14    15   ar
    15    15    16   ar
    16    16    17   ar
    17    17    18    1
    18    17    19   ar
    19    19    20    1
    20    20    21    1
    21    20    22    1
    22    20    23    1
    23    19    24   ar
    24    13    25   ar
    25    25    26   ar
    26     5    27   ar
    27    27    28    2
    28    27    29   ar
    29    29    30    1
    30    29    31   ar
    31    31    32    2
    32    31    33   ar
    33    33    34    1
    34     6     2   ar
    35    26    11   ar
    36    33     4   ar
    37    24    14   ar
    38     1    35    1
    39     1    36    1
    40     1    37    1
    41     7    38    1
    42     7    39    1
    43    10    40    1
    44    15    41    1
    45    16    42    1
    46    24    43    1
    47    25    44    1
    48    30    45    1
    49    30    46    1
    50    30    47    1
    51    34    48    1
    52    34    49    1
    53    34    50    1
@<TRIPOS>MOLECULE
343285
 51 54 0 0 0
SMALL
GASTEIGER

@<TRIPOS>ATOM
      1 C          -1.6939    2.9647   -0.0050 C.3     1  UNL1       -0.0060
      2 C          -2.8161    1.9984    0.0007 C.ar    1  UNL1        0.1089
      3 O          -3.9170    2.0843    0.7299 O.2     1  UNL1       -0.4431
      4 C          -4.7086    1.0721    0.5025 C.ar    1  UNL1        0.2175
      5 C          -4.0767    0.2677   -0.4446 C.ar    1  UNL1        0.1065
      6 C          -2.8708    0.8542   -0.7671 C.ar    1  UNL1        0.0166
      7 C          -1.8611    0.3679   -1.7217 C.3     1  UNL1        0.0535
      8 C          -0.6992   -0.2356   -1.0304 C.2     1  UNL1        0.2231
      9 O          -0.6400   -0.2974    0.2114 O.2     1  UNL1       -0.2751
     10 N           0.3860   -0.7634   -1.7834 N.am    1  UNL1       -0.2644
     11 C           1.5398   -1.3599   -1.2042 C.ar    1  UNL1        0.1649
     12 N           2.6736   -1.0321   -0.7979 N.ar    1  UNL1       -0.2246
     13 C           3.5857   -1.7863   -0.2905 C.ar    1  UNL1        0.0803
     14 C           4.9224   -1.2855    0.1688 C.ar    1  UNL1        0.0045
     15 C           5.8112   -2.1661    0.6886 C.ar    1  UNL1       -0.0509
     16 C           7.0663   -1.6979    1.1212 C.ar    1  UNL1       -0.0392
     17 C           7.3763   -0.3562    1.0121 C.ar    1  UNL1        0.0829
     18 CL          8.9514    0.1534    1.5832 Cl      1  UNL1       -0.0798
     19 C           6.4821    0.5479    0.4856 C.ar    1  UNL1        0.1488
     20 O           6.6966    1.8738    0.3384 O.3     1  UNL1       -0.4042
     21 C           7.7822    2.6731    0.6185 C.3     1  UNL1        0.5753
     22 F           8.9369    2.3418   -0.0805 F       1  UNL1       -0.1328
     23 F           7.4657    3.9699    0.1847 F       1  UNL1       -0.1328
     24 F           8.0431    2.8073    1.9717 F       1  UNL1       -0.1328
     25 C           5.2486    0.0416    0.0688 C.ar    1  UNL1       -0.0090
     26 C           3.2937   -3.1478   -0.1687 C.ar    1  UNL1        0.0049
     27 S           1.6204   -3.1949   -0.8457 S.2     1  UNL1       -0.0599
     28 C          -4.7159   -0.8711   -0.8533 C.ar    1  UNL1        0.2675
     29 O          -4.1329   -1.5861   -1.7081 O.2     1  UNL1       -0.2667
     30 N          -5.9207   -1.1905   -0.3446 N.ar    1  UNL1       -0.2633
     31 C          -6.5960   -2.3911   -0.7744 C.3     1  UNL1        0.0196
     32 C          -6.4887   -0.3881    0.5622 C.ar    1  UNL1        0.3341
     33 O          -7.6295   -0.7035    1.0348 O.2     1  UNL1       -0.2462
     34 N          -5.9102    0.7410    1.0010 N.ar    1  UNL1       -0.2667
     35 C          -6.6011    1.5464    1.9842 C.3     1  UNL1        0.0194
     36 H          -1.5853    3.3615   -1.0249 H       1  UNL1        0.0308
     37 H          -0.7411    2.4858    0.2752 H       1  UNL1        0.0308
     38 H          -1.8871    3.7508    0.7542 H       1  UNL1        0.0308
     39 H          -2.2619   -0.3765   -2.4163 H       1  UNL1        0.0408
     40 H          -1.4499    1.2021   -2.3549 H       1  UNL1        0.0408
     41 H           0.3536   -0.7200   -2.8280 H       1  UNL1        0.1567
     42 H           5.6116   -3.2171    0.7917 H       1  UNL1        0.0625
     43 H           7.7592   -2.4180    1.5324 H       1  UNL1        0.0633
     44 H           4.4908    0.7025   -0.3586 H       1  UNL1        0.0661
     45 H           3.8334   -3.9416    0.1932 H       1  UNL1        0.0716
     46 H          -7.4704   -2.5693   -0.1163 H       1  UNL1        0.0458
     47 H          -6.9186   -2.2346   -1.8349 H       1  UNL1        0.0458
     48 H          -5.8699   -3.2405   -0.7239 H       1  UNL1        0.0458
     49 H          -7.6552    1.7281    1.6213 H       1  UNL1        0.0458
     50 H          -6.6555    1.0658    2.9797 H       1  UNL1        0.0458
     51 H          -6.1577    2.5694    2.0641 H       1  UNL1        0.0458
@<TRIPOS>BOND
     1     1     2    1
     2     2     3   ar
     3     3     4   ar
     4     4     5   ar
     5     5     6   ar
     6     6     7    1
     7     7     8    1
     8     8     9    2
     9     8    10   am
    10    10    11    1
    11    11    12   ar
    12    12    13   ar
    13    13    14    1
    14    14    15   ar
    15    15    16   ar
    16    16    17   ar
    17    17    18    1
    18    17    19   ar
    19    19    20    1
    20    20    21    1
    21    21    22    1
    22    21    23    1
    23    21    24    1
    24    19    25   ar
    25    13    26   ar
    26    26    27   ar
    27     5    28   ar
    28    28    29    2
    29    28    30   ar
    30    30    31    1
    31    30    32   ar
    32    32    33    2
    33    32    34   ar
    34    34    35    1
    35     6     2   ar
    36    27    11   ar
    37    34     4   ar
    38    25    14   ar
    39     1    36    1
    40     1    37    1
    41     1    38    1
    42     7    39    1
    43     7    40    1
    44    10    41    1
    45    15    42    1
    46    16    43    1
    47    25    44    1
    48    26    45    1
    49    31    46    1
    50    31    47    1
    51    31    48    1
    52    35    49    1
    53    35    50    1
    54    35    51    1
@<TRIPOS>MOLECULE
343291
 50 53 0 0 0
SMALL
GASTEIGER

@<TRIPOS>ATOM
      1 C          -2.1668   -0.0392   -3.1484 C.3     1  UNL1       -0.0060
      2 C          -3.0599    0.0251   -1.9360 C.ar    1  UNL1        0.1089
      3 O          -4.0821    0.8249   -1.7431 O.2     1  UNL1       -0.4431
      4 C          -4.6510    0.6392   -0.5983 C.ar    1  UNL1        0.2175
      5 C          -3.9747   -0.3717    0.0663 C.ar    1  UNL1        0.1065
      6 C          -2.9673   -0.7500   -0.7980 C.ar    1  UNL1        0.0166
      7 C          -1.9676   -1.7978   -0.5354 C.3     1  UNL1        0.0535
      8 C          -0.6396   -1.2054   -0.1613 C.2     1  UNL1        0.2231
      9 O          -0.4662    0.0423   -0.0965 O.2     1  UNL1       -0.2751
     10 N           0.4902   -2.0138    0.1397 N.am    1  UNL1       -0.2644
     11 C           1.7529   -1.4448    0.4983 C.ar    1  UNL1        0.1649
     12 N           2.7538   -1.0673    0.0546 N.ar    1  UNL1       -0.2246
     13 C           3.8084   -0.5611    0.6307 C.ar    1  UNL1        0.0802
     14 C           5.0355   -0.1115   -0.0743 C.ar    1  UNL1        0.0016
     15 C           5.1380   -0.2072   -1.4430 C.ar    1  UNL1       -0.0498
     16 C           6.2432    0.1939   -2.1487 C.ar    1  UNL1       -0.0253
     17 C           7.3278    0.7286   -1.4584 C.ar    1  UNL1        0.1351
     18 F           8.4534    1.1463   -2.0842 F       1  UNL1       -0.2049
     19 C           7.2482    0.8339   -0.0902 C.ar    1  UNL1        0.0905
     20 C           8.3946    1.4036    0.6585 C.3     1  UNL1        0.4201
     21 F           8.6700    2.7163    0.2596 F       1  UNL1       -0.1658
     22 F           9.5560    0.6633    0.3975 F       1  UNL1       -0.1658
     23 F           8.1960    1.3606    2.0197 F       1  UNL1       -0.1658
     24 C           6.1148    0.4183    0.5919 C.ar    1  UNL1       -0.0381
     25 C           3.7407   -0.4474    2.0051 C.ar    1  UNL1        0.0049
     26 S           2.0660   -1.1218    2.3383 S.2     1  UNL1       -0.0599
     27 C          -4.4081   -0.7384    1.3099 C.ar    1  UNL1        0.2675
     28 O          -3.7889   -1.6563    1.9056 O.2     1  UNL1       -0.2667
     29 N          -5.4610   -0.1639    1.9199 N.ar    1  UNL1       -0.2633
     30 C          -5.9065   -0.5661    3.2424 C.3     1  UNL1        0.0196
     31 C          -6.0846    0.8163    1.2279 C.ar    1  UNL1        0.3341
     32 O          -7.0822    1.3954    1.7483 O.2     1  UNL1       -0.2462
     33 N          -5.7121    1.2213    0.0112 N.ar    1  UNL1       -0.2667
     34 C          -6.4175    2.2792   -0.6867 C.3     1  UNL1        0.0194
     35 H          -2.7484    0.0509   -4.0845 H       1  UNL1        0.0308
     36 H          -1.5926   -0.9770   -3.0746 H       1  UNL1        0.0308
     37 H          -1.4593    0.8107   -3.0872 H       1  UNL1        0.0308
     38 H          -1.8265   -2.4079   -1.4663 H       1  UNL1        0.0408
     39 H          -2.2550   -2.4989    0.2574 H       1  UNL1        0.0408
     40 H           0.3432   -3.0494    0.0832 H       1  UNL1        0.1567
     41 H           4.2991   -0.6223   -1.9900 H       1  UNL1        0.0625
     42 H           6.3310    0.1219   -3.2217 H       1  UNL1        0.0646
     43 H           6.0619    0.5050    1.6666 H       1  UNL1        0.0630
     44 H           4.4040   -0.0898    2.7478 H       1  UNL1        0.0716
     45 H          -6.2240    0.3219    3.8410 H       1  UNL1        0.0458
     46 H          -6.7337   -1.3015    3.1802 H       1  UNL1        0.0458
     47 H          -5.0538   -1.1026    3.7269 H       1  UNL1        0.0458
     48 H          -5.9548    3.2510   -0.3444 H       1  UNL1        0.0458
     49 H          -6.2497    2.2448   -1.7776 H       1  UNL1        0.0458
     50 H          -7.4948    2.2984   -0.4807 H       1  UNL1        0.0458
@<TRIPOS>BOND
     1     1     2    1
     2     2     3   ar
     3     3     4   ar
     4     4     5   ar
     5     5     6   ar
     6     6     7    1
     7     7     8    1
     8     8     9    2
     9     8    10   am
    10    10    11    1
    11    11    12   ar
    12    12    13   ar
    13    13    14    1
    14    14    15   ar
    15    15    16   ar
    16    16    17   ar
    17    17    18    1
    18    17    19   ar
    19    19    20    1
    20    20    21    1
    21    20    22    1
    22    20    23    1
    23    19    24   ar
    24    13    25   ar
    25    25    26   ar
    26     5    27   ar
    27    27    28    2
    28    27    29   ar
    29    29    30    1
    30    29    31   ar
    31    31    32    2
    32    31    33   ar
    33    33    34    1
    34     6     2   ar
    35    26    11   ar
    36    33     4   ar
    37    24    14   ar
    38     1    35    1
    39     1    36    1
    40     1    37    1
    41     7    38    1
    42     7    39    1
    43    10    40    1
    44    15    41    1
    45    16    42    1
    46    24    43    1
    47    25    44    1
    48    30    45    1
    49    30    46    1
    50    30    47    1
    51    34    48    1
    52    34    49    1
    53    34    50    1
@<TRIPOS>MOLECULE
343286
 50 53 0 0 0
SMALL
GASTEIGER

@<TRIPOS>ATOM
      1 C          -2.9874   -3.5524   -0.3361 C.3     1  UNL1       -0.0060
      2 C          -3.5975   -2.2157   -0.2270 C.ar    1  UNL1        0.1089
      3 O          -4.7329   -2.0101    0.4410 O.2     1  UNL1       -0.4431
      4 C          -5.0653   -0.7380    0.3893 C.ar    1  UNL1        0.2175
      5 C          -4.0950   -0.0775   -0.3528 C.ar    1  UNL1        0.1065
      6 C          -3.1519   -1.0272   -0.7485 C.ar    1  UNL1        0.0166
      7 C          -1.9294   -0.7921   -1.5305 C.3     1  UNL1        0.0535
      8 C          -0.7237   -0.7045   -0.6699 C.2     1  UNL1        0.2231
      9 O          -0.8705   -0.8576    0.5788 O.2     1  UNL1       -0.2751
     10 N           0.5646   -0.4600   -1.1550 N.am    1  UNL1       -0.2644
     11 C           1.6990   -0.3701   -0.3046 C.ar    1  UNL1        0.1649
     12 N           2.9941   -0.1317   -0.6322 N.ar    1  UNL1       -0.2245
     13 C           3.8990   -0.0708    0.2622 C.ar    1  UNL1        0.0830
     14 C           5.3266    0.1992   -0.1205 C.ar    1  UNL1        0.0368
     15 C           5.6219    0.3215   -1.4566 C.ar    1  UNL1       -0.0471
     16 C           6.9194    0.5818   -1.8436 C.ar    1  UNL1       -0.0251
     17 C           7.8964    0.7153   -0.8950 C.ar    1  UNL1        0.1379
     18 F           9.2083    0.9732   -1.1988 F       1  UNL1       -0.2048
     19 C           7.6045    0.5939    0.4345 C.ar    1  UNL1        0.1255
     20 C           8.6350    0.7306    1.5046 C.3     1  UNL1        0.4227
     21 F           8.0770    0.5643    2.7389 F       1  UNL1       -0.1657
     22 F           9.2543    1.9550    1.4485 F       1  UNL1       -0.1657
     23 F           9.5250   -0.3171    1.3206 F       1  UNL1       -0.1657
     24 C           6.2852    0.3296    0.8161 C.ar    1  UNL1        0.1470
     25 F           6.0434    0.2209    2.1252 F       1  UNL1       -0.2041
     26 C           3.5876   -0.2476    1.6043 C.ar    1  UNL1        0.0050
     27 S           1.7558   -0.5236    1.4213 S.2     1  UNL1       -0.0599
     28 C          -4.1728    1.2631   -0.5753 C.ar    1  UNL1        0.2675
     29 O          -3.2560    1.8146   -1.2613 O.2     1  UNL1       -0.2667
     30 N          -5.1951    1.9658   -0.0768 N.ar    1  UNL1       -0.2633
     31 C          -5.2714    3.3809   -0.3091 C.3     1  UNL1        0.0196
     32 C          -6.1302    1.3105    0.6415 C.ar    1  UNL1        0.3341
     33 O          -7.0730    2.0386    1.0842 O.2     1  UNL1       -0.2462
     34 N          -6.0838    0.0022    0.8772 N.ar    1  UNL1       -0.2667
     35 C          -7.1021   -0.6584    1.6518 C.3     1  UNL1        0.0194
     36 H          -3.6863   -4.2635   -0.8435 H       1  UNL1        0.0308
     37 H          -2.0090   -3.5269   -0.8363 H       1  UNL1        0.0308
     38 H          -2.8752   -3.9518    0.7001 H       1  UNL1        0.0308
     39 H          -1.7126   -1.6459   -2.2398 H       1  UNL1        0.0408
     40 H          -2.0325    0.0863   -2.2143 H       1  UNL1        0.0408
     41 H           0.7238   -0.3363   -2.1623 H       1  UNL1        0.1567
     42 H           4.8770    0.2221   -2.2254 H       1  UNL1        0.0626
     43 H           7.1937    0.6869   -2.8797 H       1  UNL1        0.0646
     44 H           4.0567   -0.2615    2.5319 H       1  UNL1        0.0716
     45 H          -4.6275    3.7055   -1.1545 H       1  UNL1        0.0458
     46 H          -6.3060    3.6647   -0.5755 H       1  UNL1        0.0458
     47 H          -5.0060    3.9442    0.6233 H       1  UNL1        0.0458
     48 H          -6.7624   -0.6517    2.7210 H       1  UNL1        0.0458
     49 H          -7.2046   -1.7316    1.3751 H       1  UNL1        0.0458
     50 H          -8.0885   -0.1471    1.5323 H       1  UNL1        0.0458
@<TRIPOS>BOND
     1     1     2    1
     2     2     3   ar
     3     3     4   ar
     4     4     5   ar
     5     5     6   ar
     6     6     7    1
     7     7     8    1
     8     8     9    2
     9     8    10   am
    10    10    11    1
    11    11    12   ar
    12    12    13   ar
    13    13    14    1
    14    14    15   ar
    15    15    16   ar
    16    16    17   ar
    17    17    18    1
    18    17    19   ar
    19    19    20    1
    20    20    21    1
    21    20    22    1
    22    20    23    1
    23    19    24   ar
    24    24    25    1
    25    13    26   ar
    26    26    27   ar
    27     5    28   ar
    28    28    29    2
    29    28    30   ar
    30    30    31    1
    31    30    32   ar
    32    32    33    2
    33    32    34   ar
    34    34    35    1
    35     6     2   ar
    36    27    11   ar
    37    34     4   ar
    38    24    14   ar
    39     1    36    1
    40     1    37    1
    41     1    38    1
    42     7    39    1
    43     7    40    1
    44    10    41    1
    45    15    42    1
    46    16    43    1
    47    26    44    1
    48    31    45    1
    49    31    46    1
    50    31    47    1
    51    35    48    1
    52    35    49    1
    53    35    50    1
@<TRIPOS>MOLECULE
343290
 51 54 0 0 0
SMALL
GASTEIGER

@<TRIPOS>ATOM
      1 C          -1.7568    3.0375   -0.1244 C.3     1  UNL1       -0.0060
      2 C          -2.8435    2.0377   -0.1261 C.ar    1  UNL1        0.1089
      3 O          -3.9931    2.1678    0.5236 O.2     1  UNL1       -0.4431
      4 C          -4.7549    1.1268    0.3358 C.ar    1  UNL1        0.2175
      5 C          -4.0679    0.2516   -0.4897 C.ar    1  UNL1        0.1065
      6 C          -2.8492    0.8283   -0.7865 C.ar    1  UNL1        0.0166
      7 C          -1.7915    0.2420   -1.6416 C.3     1  UNL1        0.0535
      8 C          -0.6575   -0.3020   -0.8495 C.2     1  UNL1        0.2231
      9 O          -0.5858   -0.2770    0.3854 O.2     1  UNL1       -0.2751
     10 N           0.4081   -0.8876   -1.5875 N.am    1  UNL1       -0.2644
     11 C           1.5656   -1.4534   -0.9841 C.ar    1  UNL1        0.1649
     12 N           2.6797   -1.1145   -0.6288 N.ar    1  UNL1       -0.2246
     13 C           3.5991   -1.8426   -0.0795 C.ar    1  UNL1        0.0803
     14 C           4.9257   -1.2967    0.3070 C.ar    1  UNL1        0.0046
     15 C           5.8675   -2.1020    0.8844 C.ar    1  UNL1       -0.0496
     16 C           7.1098   -1.5569    1.2372 C.ar    1  UNL1       -0.0222
     17 C           7.4089   -0.2233    1.0162 C.ar    1  UNL1        0.1651
     18 F           8.6366    0.1958    1.3902 F       1  UNL1       -0.2017
     19 C           6.4619    0.5849    0.4363 C.ar    1  UNL1        0.1656
     20 O           6.7345    1.9089    0.2082 O.3     1  UNL1       -0.4028
     21 C           7.8925    2.6093    0.5009 C.3     1  UNL1        0.5753
     22 F           8.2210    2.6396    1.8335 F       1  UNL1       -0.1328
     23 F           7.6801    3.9347    0.0936 F       1  UNL1       -0.1328
     24 F           8.9334    2.1498   -0.2828 F       1  UNL1       -0.1328
     25 C           5.2458    0.0178    0.0994 C.ar    1  UNL1       -0.0076
     26 C           3.3083   -3.1633    0.1407 C.ar    1  UNL1        0.0049
     27 S           1.6217   -3.2692   -0.5007 S.2     1  UNL1       -0.0599
     28 C          -4.6826   -0.9283   -0.8275 C.ar    1  UNL1        0.2675
     29 O          -4.0500   -1.7244   -1.5823 O.2     1  UNL1       -0.2667
     30 N          -5.9119   -1.2094   -0.3631 N.ar    1  UNL1       -0.2633
     31 C          -6.5400   -2.4615   -0.7334 C.3     1  UNL1        0.0196
     32 C          -6.5495   -0.3192    0.4457 C.ar    1  UNL1        0.3341
     33 O          -7.6966   -0.6538    0.8392 O.2     1  UNL1       -0.2462
     34 N          -5.9817    0.8437    0.7978 N.ar    1  UNL1       -0.2667
     35 C          -6.7230    1.7353    1.6591 C.3     1  UNL1        0.0194
     36 H          -1.9059    3.6993   -0.9965 H       1  UNL1        0.0308
     37 H          -0.7620    2.5493   -0.1637 H       1  UNL1        0.0308
     38 H          -1.8079    3.6875    0.7798 H       1  UNL1        0.0308
     39 H          -2.1749   -0.5336   -2.3073 H       1  UNL1        0.0408
     40 H          -1.3402    1.0304   -2.3100 H       1  UNL1        0.0408
     41 H           0.3766   -0.9242   -2.6373 H       1  UNL1        0.1567
     42 H           5.6450   -3.1377    1.0599 H       1  UNL1        0.0625
     43 H           7.8183   -2.2454    1.6927 H       1  UNL1        0.0648
     44 H           4.4978    0.6529   -0.3578 H       1  UNL1        0.0662
     45 H           3.8519   -3.9590    0.5583 H       1  UNL1        0.0716
     46 H          -7.5716   -2.4811   -0.2980 H       1  UNL1        0.0458
     47 H          -6.6316   -2.4620   -1.8430 H       1  UNL1        0.0458
     48 H          -5.9407   -3.3291   -0.4144 H       1  UNL1        0.0458
     49 H          -7.7547    1.9209    1.2418 H       1  UNL1        0.0458
     50 H          -6.9168    1.2877    2.6693 H       1  UNL1        0.0458
     51 H          -6.2477    2.7179    1.7820 H       1  UNL1        0.0458
@<TRIPOS>BOND
     1     1     2    1
     2     2     3   ar
     3     3     4   ar
     4     4     5   ar
     5     5     6   ar
     6     6     7    1
     7     7     8    1
     8     8     9    2
     9     8    10   am
    10    10    11    1
    11    11    12   ar
    12    12    13   ar
    13    13    14    1
    14    14    15   ar
    15    15    16   ar
    16    16    17   ar
    17    17    18    1
    18    17    19   ar
    19    19    20    1
    20    20    21    1
    21    21    22    1
    22    21    23    1
    23    21    24    1
    24    19    25   ar
    25    13    26   ar
    26    26    27   ar
    27     5    28   ar
    28    28    29    2
    29    28    30   ar
    30    30    31    1
    31    30    32   ar
    32    32    33    2
    33    32    34   ar
    34    34    35    1
    35     6     2   ar
    36    27    11   ar
    37    34     4   ar
    38    25    14   ar
    39     1    36    1
    40     1    37    1
    41     1    38    1
    42     7    39    1
    43     7    40    1
    44    10    41    1
    45    15    42    1
    46    16    43    1
    47    25    44    1
    48    26    45    1
    49    31    46    1
    50    31    47    1
    51    31    48    1
    52    35    49    1
    53    35    50    1
    54    35    51    1
@<TRIPOS>MOLECULE
343295
 51 54 0 0 0
SMALL
GASTEIGER

@<TRIPOS>ATOM
      1 C          -2.2018   -3.1012    0.2718 C.3     1  UNL1       -0.0060
      2 C          -3.1893   -1.9716    0.2455 C.ar    1  UNL1        0.1089
      3 O          -4.2332   -1.8130    1.0137 O.2     1  UNL1       -0.4431
      4 C          -4.8834   -0.7208    0.7287 C.ar    1  UNL1        0.2175
      5 C          -4.2431   -0.0758   -0.3131 C.ar    1  UNL1        0.1065
      6 C          -3.1508   -0.8958   -0.6143 C.ar    1  UNL1        0.0166
      7 C          -2.1684   -0.6155   -1.6670 C.3     1  UNL1        0.0535
      8 C          -0.8891   -0.1113   -1.0721 C.2     1  UNL1        0.2231
      9 O          -0.8079    0.0051    0.1678 O.2     1  UNL1       -0.2751
     10 N           0.2211    0.2339   -1.8692 N.am    1  UNL1       -0.2644
     11 C           1.4743    0.7263   -1.3068 C.ar    1  UNL1        0.1649
     12 N           2.5085    0.4169   -0.9001 N.ar    1  UNL1       -0.2246
     13 C           3.4976    1.1047   -0.4327 C.ar    1  UNL1        0.0803
     14 C           4.7712    0.5476    0.0538 C.ar    1  UNL1        0.0025
     15 C           5.7620    1.3759    0.5332 C.ar    1  UNL1       -0.0490
     16 C           6.9664    0.8582    0.9937 C.ar    1  UNL1       -0.0175
     17 C           7.2190   -0.4963    0.9905 C.ar    1  UNL1        0.1483
     18 O           8.4316   -1.0236    1.4537 O.3     1  UNL1       -0.4043
     19 C           9.4502   -1.1560    0.4633 C.3     1  UNL1        0.5753
     20 F           9.0241   -2.0052   -0.5614 F       1  UNL1       -0.1328
     21 F          10.6361   -1.5797    1.0029 F       1  UNL1       -0.1328
     22 F           9.5919    0.0946   -0.1105 F       1  UNL1       -0.1328
     23 C           6.2287   -1.3277    0.5112 C.ar    1  UNL1        0.0835
     24 CL          6.5317   -3.0433    0.4992 Cl      1  UNL1       -0.0797
     25 C           5.0383   -0.8003    0.0572 C.ar    1  UNL1       -0.0306
     26 C           3.2365    2.5296   -0.4278 C.ar    1  UNL1        0.0049
     27 S           1.5796    2.5805   -1.1148 S.2     1  UNL1       -0.0599
     28 C          -4.7066    1.1203   -0.8371 C.ar    1  UNL1        0.2675
     29 O          -4.1023    1.6854   -1.7868 O.2     1  UNL1       -0.2667
     30 N          -5.8179    1.6721   -0.3135 N.ar    1  UNL1       -0.2633
     31 C          -6.3552    2.9207   -0.8147 C.3     1  UNL1        0.0196
     32 C          -6.4251    1.0257    0.7010 C.ar    1  UNL1        0.3341
     33 O          -7.4633    1.5554    1.1792 O.2     1  UNL1       -0.2462
     34 N          -5.9871   -0.1306    1.2162 N.ar    1  UNL1       -0.2667
     35 C          -6.6968   -0.7691    2.3116 C.3     1  UNL1        0.0194
     36 H          -2.7826   -4.0480    0.2476 H       1  UNL1        0.0308
     37 H          -1.5858   -3.0711   -0.6397 H       1  UNL1        0.0308
     38 H          -1.5229   -3.0269    1.1424 H       1  UNL1        0.0308
     39 H          -1.9179   -1.6071   -2.1423 H       1  UNL1        0.0408
     40 H          -2.5342    0.0268   -2.4689 H       1  UNL1        0.0408
     41 H           0.1842    0.1501   -2.8782 H       1  UNL1        0.1567
     42 H           5.5843    2.4619    0.5461 H       1  UNL1        0.0625
     43 H           7.7327    1.5280    1.3669 H       1  UNL1        0.0655
     44 H           4.2612   -1.4675   -0.3203 H       1  UNL1        0.0640
     45 H           3.8808    3.3454   -0.0943 H       1  UNL1        0.0716
     46 H          -6.0327    3.7454   -0.1737 H       1  UNL1        0.0458
     47 H          -6.0841    3.0870   -1.8739 H       1  UNL1        0.0458
     48 H          -7.4702    2.9029   -0.7792 H       1  UNL1        0.0458
     49 H          -7.3604   -1.5617    1.9455 H       1  UNL1        0.0458
     50 H          -5.9419   -1.2518    2.9666 H       1  UNL1        0.0458
     51 H          -7.2581   -0.0297    2.9051 H       1  UNL1        0.0458
@<TRIPOS>BOND
     1     1     2    1
     2     2     3   ar
     3     3     4   ar
     4     4     5   ar
     5     5     6   ar
     6     6     7    1
     7     7     8    1
     8     8     9    2
     9     8    10   am
    10    10    11    1
    11    11    12   ar
    12    12    13   ar
    13    13    14    1
    14    14    15   ar
    15    15    16   ar
    16    16    17   ar
    17    17    18    1
    18    18    19    1
    19    19    20    1
    20    19    21    1
    21    19    22    1
    22    17    23   ar
    23    23    24    1
    24    23    25   ar
    25    13    26   ar
    26    26    27   ar
    27     5    28   ar
    28    28    29    2
    29    28    30   ar
    30    30    31    1
    31    30    32   ar
    32    32    33    2
    33    32    34   ar
    34    34    35    1
    35     6     2   ar
    36    27    11   ar
    37    34     4   ar
    38    25    14   ar
    39     1    36    1
    40     1    37    1
    41     1    38    1
    42     7    39    1
    43     7    40    1
    44    10    41    1
    45    15    42    1
    46    16    43    1
    47    25    44    1
    48    26    45    1
    49    31    46    1
    50    31    47    1
    51    31    48    1
    52    35    49    1
    53    35    50    1
    54    35    51    1
@<TRIPOS>MOLECULE
343292
 51 54 0 0 0
SMALL
GASTEIGER

@<TRIPOS>ATOM
      1 C          -3.2002   -2.7896    1.7701 C.3     1  UNL1       -0.0060
      2 C          -3.8789   -1.6480    1.1071 C.ar    1  UNL1        0.1089
      3 O          -4.9686   -1.0386    1.4844 O.2     1  UNL1       -0.4431
      4 C          -5.2838   -0.0772    0.6677 C.ar    1  UNL1        0.2175
      5 C          -4.3244   -0.0336   -0.3483 C.ar    1  UNL1        0.1065
      6 C          -3.4401   -1.0315   -0.0608 C.ar    1  UNL1        0.0166
      7 C          -2.2321   -1.4156   -0.8173 C.3     1  UNL1        0.0535
      8 C          -1.0072   -0.9193   -0.1335 C.2     1  UNL1        0.2231
      9 O          -1.1429   -0.2654    0.9448 O.2     1  UNL1       -0.2751
     10 N           0.2861   -1.1399   -0.6236 N.am    1  UNL1       -0.2644
     11 C           1.4869   -0.6546    0.0429 C.ar    1  UNL1        0.1649
     12 N           2.6625   -0.6569   -0.0798 N.ar    1  UNL1       -0.2246
     13 C           3.5741   -0.1320    0.6785 C.ar    1  UNL1        0.0803
     14 C           5.0273   -0.2083    0.4077 C.ar    1  UNL1        0.0039
     15 C           5.9188    0.3822    1.2733 C.ar    1  UNL1       -0.0489
     16 C           7.2894    0.3119    1.0188 C.ar    1  UNL1       -0.0161
     17 C           7.7949   -0.3368   -0.0844 C.ar    1  UNL1        0.1650
     18 O           9.1752   -0.4033   -0.3332 O.3     1  UNL1       -0.4028
     19 C           9.6873    0.6752   -1.1175 C.3     1  UNL1        0.5753
     20 F           9.0226    0.6480   -2.3410 F       1  UNL1       -0.1328
     21 F          11.0476    0.6168   -1.2538 F       1  UNL1       -0.1328
     22 F           9.2628    1.8462   -0.4949 F       1  UNL1       -0.1328
     23 C           6.8965   -0.9266   -0.9480 C.ar    1  UNL1        0.1657
     24 F           7.3390   -1.5781   -2.0513 F       1  UNL1       -0.2016
     25 C           5.5373   -0.8556   -0.6938 C.ar    1  UNL1       -0.0136
     26 C           3.0390    0.5396    1.8203 C.ar    1  UNL1        0.0049
     27 S           1.2872    0.2943    1.6000 S.2     1  UNL1       -0.0599
     28 C          -4.4297    0.9053   -1.3495 C.ar    1  UNL1        0.2675
     29 O          -3.5571    0.9270   -2.2526 O.2     1  UNL1       -0.2667
     30 N          -5.4386    1.7932   -1.3818 N.ar    1  UNL1       -0.2633
     31 C          -5.5888    2.7941   -2.4108 C.3     1  UNL1        0.0196
     32 C          -6.3495    1.7152   -0.3742 C.ar    1  UNL1        0.3341
     33 O          -7.2922    2.5432   -0.4025 O.2     1  UNL1       -0.2462
     34 N          -6.2754    0.8137    0.6142 N.ar    1  UNL1       -0.2667
     35 C          -7.2865    0.7908    1.6577 C.3     1  UNL1        0.0194
     36 H          -3.9174   -3.6438    1.8646 H       1  UNL1        0.0308
     37 H          -2.3696   -3.1530    1.1460 H       1  UNL1        0.0308
     38 H          -2.7846   -2.5212    2.7594 H       1  UNL1        0.0308
     39 H          -2.1888   -2.5207   -0.8624 H       1  UNL1        0.0408
     40 H          -2.2551   -1.0335   -1.8615 H       1  UNL1        0.0408
     41 H           0.4425   -1.6619   -1.4880 H       1  UNL1        0.1567
     42 H           5.5380    0.8970    2.1464 H       1  UNL1        0.0625
     43 H           7.9820    0.7787    1.7029 H       1  UNL1        0.0655
     44 H           4.8110   -1.3193   -1.3700 H       1  UNL1        0.0654
     45 H           3.5921    1.0876    2.6526 H       1  UNL1        0.0716
     46 H          -5.1824    3.7575   -2.0010 H       1  UNL1        0.0458
     47 H          -5.0948    2.5321   -3.3467 H       1  UNL1        0.0458
     48 H          -6.6673    2.9905   -2.6493 H       1  UNL1        0.0458
     49 H          -8.0579    0.0354    1.4082 H       1  UNL1        0.0458
     50 H          -6.7820    0.4786    2.6072 H       1  UNL1        0.0458
     51 H          -7.7038    1.8099    1.7590 H       1  UNL1        0.0458
@<TRIPOS>BOND
     1     1     2    1
     2     2     3   ar
     3     3     4   ar
     4     4     5   ar
     5     5     6   ar
     6     6     7    1
     7     7     8    1
     8     8     9    2
     9     8    10   am
    10    10    11    1
    11    11    12   ar
    12    12    13   ar
    13    13    14    1
    14    14    15   ar
    15    15    16   ar
    16    16    17   ar
    17    17    18    1
    18    18    19    1
    19    19    20    1
    20    19    21    1
    21    19    22    1
    22    17    23   ar
    23    23    24    1
    24    23    25   ar
    25    13    26   ar
    26    26    27   ar
    27     5    28   ar
    28    28    29    2
    29    28    30   ar
    30    30    31    1
    31    30    32   ar
    32    32    33    2
    33    32    34   ar
    34    34    35    1
    35     6     2   ar
    36    27    11   ar
    37    34     4   ar
    38    25    14   ar
    39     1    36    1
    40     1    37    1
    41     1    38    1
    42     7    39    1
    43     7    40    1
    44    10    41    1
    45    15    42    1
    46    16    43    1
    47    25    44    1
    48    26    45    1
    49    31    46    1
    50    31    47    1
    51    31    48    1
    52    35    49    1
    53    35    50    1
    54    35    51    1
@<TRIPOS>MOLECULE
343296
 54 57 0 0 0
SMALL
GASTEIGER

@<TRIPOS>ATOM
      1 C          -2.9118    0.1048   -3.5031 C.3     1  UNL1       -0.0060
      2 C          -3.6353    0.2565   -2.2097 C.ar    1  UNL1        0.1089
      3 O          -4.8363   -0.2584   -1.9341 O.2     1  UNL1       -0.4431
      4 C          -5.2120    0.0484   -0.7108 C.ar    1  UNL1        0.2175
      5 C          -4.2343    0.8092   -0.1084 C.ar    1  UNL1        0.1065
      6 C          -3.2524    0.9178   -1.0893 C.ar    1  UNL1        0.0166
      7 C          -1.9899    1.6427   -0.8597 C.3     1  UNL1        0.0535
      8 C          -0.8692    0.7365   -0.5221 C.2     1  UNL1        0.2231
      9 O           0.2974    1.0514   -0.9576 O.2     1  UNL1       -0.2751
     10 N          -0.9872   -0.4290    0.2267 N.am    1  UNL1       -0.2644
     11 C           0.2235   -1.1998    0.4785 C.ar    1  UNL1        0.1649
     12 N           1.4254   -0.9598    0.3306 N.ar    1  UNL1       -0.2246
     13 C           2.4113   -1.7673    0.5600 C.ar    1  UNL1        0.0803
     14 C           3.8436   -1.4022    0.3655 C.ar    1  UNL1        0.0025
     15 C           4.1709   -0.1398   -0.0545 C.ar    1  UNL1       -0.0490
     16 C           5.4520    0.2447   -0.2934 C.ar    1  UNL1       -0.0179
     17 C           6.4682   -0.6640   -0.1066 C.ar    1  UNL1        0.1392
     18 O           7.7992   -0.3918   -0.3252 O.3     1  UNL1       -0.4816
     19 C           8.3271    0.8327   -0.6821 C.3     1  UNL1        0.1842
     20 C           8.3437    1.8259    0.4562 C.3     1  UNL1        0.4236
     21 F           8.8361    3.0399    0.0213 F       1  UNL1       -0.1671
     22 F           9.2970    1.3009    1.3830 F       1  UNL1       -0.1671
     23 F           7.1633    1.9787    1.0909 F       1  UNL1       -0.1671
     24 C           6.1518   -1.9629    0.3223 C.ar    1  UNL1        0.0831
     25 CL          7.3912   -3.1738    0.6006 Cl      1  UNL1       -0.0797
     26 C           4.8438   -2.3119    0.5527 C.ar    1  UNL1       -0.0306
     27 C           2.0408   -3.0316    1.0199 C.ar    1  UNL1        0.0049
     28 S           0.2315   -2.8572    1.0573 S.2     1  UNL1       -0.0599
     29 C          -4.3338    1.2818    1.1815 C.ar    1  UNL1        0.2675
     30 O          -3.4446    1.9710    1.7164 O.2     1  UNL1       -0.2667
     31 N          -5.4446    0.9703    1.8584 N.ar    1  UNL1       -0.2633
     32 C          -5.6707    1.3847    3.2189 C.3     1  UNL1        0.0196
     33 C          -6.4051    0.2200    1.2578 C.ar    1  UNL1        0.3341
     34 O          -7.4510   -0.0613    1.9294 O.2     1  UNL1       -0.2462
     35 N          -6.3189   -0.2430    0.0064 N.ar    1  UNL1       -0.2667
     36 C          -7.3563   -1.0458   -0.6269 C.3     1  UNL1        0.0194
     37 H          -2.0643   -0.6146   -3.3231 H       1  UNL1        0.0308
     38 H          -3.6089   -0.2724   -4.2806 H       1  UNL1        0.0308
     39 H          -2.4809    1.0751   -3.8205 H       1  UNL1        0.0308
     40 H          -1.6966    2.1095   -1.8691 H       1  UNL1        0.0408
     41 H          -2.0765    2.4776   -0.1676 H       1  UNL1        0.0408
     42 H          -1.8827   -0.7574    0.5940 H       1  UNL1        0.1567
     43 H           3.3752    0.6060   -0.2081 H       1  UNL1        0.0625
     44 H           5.6944    1.2402   -0.6753 H       1  UNL1        0.0655
     45 H           9.3625    0.6900   -1.0663 H       1  UNL1        0.0788
     46 H           7.7065    1.2645   -1.5155 H       1  UNL1        0.0788
     47 H           4.6212   -3.3345    0.8965 H       1  UNL1        0.0640
     48 H           2.6348   -3.9384    1.2933 H       1  UNL1        0.0716
     49 H          -5.8339    0.4686    3.8548 H       1  UNL1        0.0458
     50 H          -4.7614    1.9262    3.5967 H       1  UNL1        0.0458
     51 H          -6.5577    2.0303    3.3088 H       1  UNL1        0.0458
     52 H          -6.8923   -1.6470   -1.4129 H       1  UNL1        0.0458
     53 H          -7.8032   -1.7124    0.1614 H       1  UNL1        0.0458
     54 H          -8.1004   -0.3296   -1.0191 H       1  UNL1        0.0458
@<TRIPOS>BOND
     1     1     2    1
     2     2     3   ar
     3     3     4   ar
     4     4     5   ar
     5     5     6   ar
     6     6     7    1
     7     7     8    1
     8     8     9    2
     9     8    10   am
    10    10    11    1
    11    11    12   ar
    12    12    13   ar
    13    13    14    1
    14    14    15   ar
    15    15    16   ar
    16    16    17   ar
    17    17    18    1
    18    18    19    1
    19    19    20    1
    20    20    21    1
    21    20    22    1
    22    20    23    1
    23    17    24   ar
    24    24    25    1
    25    24    26   ar
    26    13    27   ar
    27    27    28   ar
    28     5    29   ar
    29    29    30    2
    30    29    31   ar
    31    31    32    1
    32    31    33   ar
    33    33    34    2
    34    33    35   ar
    35    35    36    1
    36     6     2   ar
    37    28    11   ar
    38    35     4   ar
    39    26    14   ar
    40     1    37    1
    41     1    38    1
    42     1    39    1
    43     7    40    1
    44     7    41    1
    45    10    42    1
    46    15    43    1
    47    16    44    1
    48    19    45    1
    49    19    46    1
    50    26    47    1
    51    27    48    1
    52    32    49    1
    53    32    50    1
    54    32    51    1
    55    36    52    1
    56    36    53    1
    57    36    54    1
@<TRIPOS>MOLECULE
343289
 50 53 0 0 0
SMALL
GASTEIGER

@<TRIPOS>ATOM
      1 C           1.7026   -0.6123   -2.2592 C.3     1  UNL1       -0.0060
      2 C           2.7745   -0.2986   -1.2765 C.ar    1  UNL1        0.1089
      3 O           3.9359    0.2891   -1.5622 O.2     1  UNL1       -0.4431
      4 C           4.6580    0.4269   -0.4898 C.ar    1  UNL1        0.2175
      5 C           3.9895   -0.0801    0.5947 C.ar    1  UNL1        0.1065
      6 C           2.7750   -0.5467    0.0858 C.ar    1  UNL1        0.0166
      7 C           1.7547   -1.1440    0.9410 C.3     1  UNL1        0.0535
      8 C           0.5217   -1.5934    0.2535 C.2     1  UNL1        0.2231
      9 O           0.5291   -2.5972   -0.5058 O.2     1  UNL1       -0.2751
     10 N          -0.6950   -0.9158    0.4205 N.am    1  UNL1       -0.2644
     11 C          -1.9290   -1.2457   -0.1919 C.ar    1  UNL1        0.1649
     12 N          -3.0947   -0.7283   -0.1488 N.ar    1  UNL1       -0.2245
     13 C          -4.1113   -1.2061   -0.8137 C.ar    1  UNL1        0.0830
     14 C          -5.4704   -0.5688   -0.7338 C.ar    1  UNL1        0.0367
     15 C          -6.5148   -1.1050   -1.4187 C.ar    1  UNL1       -0.0498
     16 C          -7.7547   -0.4978   -1.2986 C.ar    1  UNL1       -0.0604
     17 C          -7.9367    0.6171   -0.5127 C.ar    1  UNL1       -0.0473
     18 C          -6.8808    1.1795    0.1931 C.ar    1  UNL1        0.0905
     19 C          -7.0579    2.3865    1.0601 C.3     1  UNL1        0.4201
     20 F          -6.7353    2.0528    2.3799 F       1  UNL1       -0.1658
     21 F          -6.1869    3.4136    0.6697 F       1  UNL1       -0.1658
     22 F          -8.3567    2.8201    0.9346 F       1  UNL1       -0.1658
     23 C          -5.6643    0.5533    0.0532 C.ar    1  UNL1        0.1442
     24 F          -4.6092    1.0792    0.7282 F       1  UNL1       -0.2042
     25 C          -3.9198   -2.3019   -1.5858 C.ar    1  UNL1        0.0050
     26 S          -2.1586   -2.6139   -1.2973 S.2     1  UNL1       -0.0599
     27 C           4.5823   -0.0337    1.8422 C.ar    1  UNL1        0.2675
     28 O           3.9565   -0.5009    2.8178 O.2     1  UNL1       -0.2667
     29 N           5.8168    0.5056    2.0105 N.ar    1  UNL1       -0.2633
     30 C           6.4711    0.5614    3.3150 C.3     1  UNL1        0.0196
     31 C           6.4317    0.9899    0.9152 C.ar    1  UNL1        0.3341
     32 O           7.5959    1.5050    1.0407 O.2     1  UNL1       -0.2462
     33 N           5.8911    0.9621   -0.2986 N.ar    1  UNL1       -0.2667
     34 C           6.5667    1.5004   -1.4971 C.3     1  UNL1        0.0194
     35 H           1.8095   -1.6406   -2.6409 H       1  UNL1        0.0308
     36 H           1.9166    0.0211   -3.1894 H       1  UNL1        0.0308
     37 H           0.6989   -0.3327   -1.9509 H       1  UNL1        0.0308
     38 H           2.1344   -1.9704    1.5767 H       1  UNL1        0.0408
     39 H           1.4512   -0.3494    1.6875 H       1  UNL1        0.0408
     40 H          -0.7120   -0.0915    1.0542 H       1  UNL1        0.1567
     41 H          -6.3825   -1.9867   -2.0467 H       1  UNL1        0.0625
     42 H          -8.5837   -0.9170   -1.8385 H       1  UNL1        0.0618
     43 H          -8.9321    1.0773   -0.4368 H       1  UNL1        0.0624
     44 H          -4.5588   -2.8814   -2.2149 H       1  UNL1        0.0716
     45 H           5.8736    1.0489    4.0862 H       1  UNL1        0.0458
     46 H           7.4271    1.1427    3.1959 H       1  UNL1        0.0458
     47 H           6.8007   -0.4544    3.6536 H       1  UNL1        0.0458
     48 H           7.2519    2.2863   -1.1200 H       1  UNL1        0.0458
     49 H           5.8250    2.0581   -2.1276 H       1  UNL1        0.0458
     50 H           7.1034    0.7372   -2.0550 H       1  UNL1        0.0458
@<TRIPOS>BOND
     1     1     2    1
     2     2     3   ar
     3     3     4   ar
     4     4     5   ar
     5     5     6   ar
     6     6     7    1
     7     7     8    1
     8     8     9    2
     9     8    10   am
    10    10    11    1
    11    11    12   ar
    12    12    13   ar
    13    13    14    1
    14    14    15   ar
    15    15    16   ar
    16    16    17   ar
    17    17    18   ar
    18    18    19    1
    19    19    20    1
    20    19    21    1
    21    19    22    1
    22    18    23   ar
    23    23    24    1
    24    13    25   ar
    25    25    26   ar
    26     5    27   ar
    27    27    28    2
    28    27    29   ar
    29    29    30    1
    30    29    31   ar
    31    31    32    2
    32    31    33   ar
    33    33    34    1
    34     6     2   ar
    35    26    11   ar
    36    33     4   ar
    37    23    14   ar
    38     1    35    1
    39     1    36    1
    40     1    37    1
    41     7    38    1
    42     7    39    1
    43    10    40    1
    44    15    41    1
    45    16    42    1
    46    17    43    1
    47    25    44    1
    48    30    45    1
    49    30    46    1
    50    30    47    1
    51    34    48    1
    52    34    49    1
    53    34    50    1
@<TRIPOS>MOLECULE
343269
 47 50 0 0 0
SMALL
GASTEIGER

@<TRIPOS>ATOM
      1 C          -1.7903    1.5297    3.5350 C.3     1  UNL1       -0.0331
      2 C          -2.4040    0.9724    2.3130 C.ar    1  UNL1       -0.0069
      3 S          -3.5100   -0.5286    2.3945 S.2     1  UNL1       -0.0751
      4 C          -3.7967   -0.5316    0.6659 C.ar    1  UNL1        0.0967
      5 C          -3.1113    0.4995    0.1557 C.ar    1  UNL1        0.0744
      6 C          -2.3846    1.2878    0.9990 C.ar    1  UNL1       -0.0143
      7 C          -1.5439    2.4831    0.5537 C.3     1  UNL1        0.0510
      8 C          -0.1198    2.1164    0.5682 C.2     1  UNL1        0.2230
      9 O           0.4259    1.8903    1.6846 O.2     1  UNL1       -0.2751
     10 N           0.7168    1.9857   -0.5723 N.am    1  UNL1       -0.2644
     11 C           2.0859    1.6243   -0.4803 C.ar    1  UNL1        0.1649
     12 N           2.8705    0.6845   -0.3985 N.ar    1  UNL1       -0.2246
     13 C           4.1484    0.6589   -0.3323 C.ar    1  UNL1        0.0803
     14 C           4.9796   -0.5974   -0.2246 C.ar    1  UNL1        0.0024
     15 C           4.3794   -1.8290   -0.1903 C.ar    1  UNL1       -0.0511
     16 C           5.1581   -2.9687   -0.0870 C.ar    1  UNL1       -0.0413
     17 C           6.5322   -2.9089   -0.0160 C.ar    1  UNL1        0.0593
     18 CL          7.4688   -4.3875    0.1145 Cl      1  UNL1       -0.0820
     19 C           7.1254   -1.6683   -0.0510 C.ar    1  UNL1        0.0599
     20 CL          8.8573   -1.5015    0.0350 Cl      1  UNL1       -0.0820
     21 C           6.3429   -0.5101   -0.1558 C.ar    1  UNL1       -0.0328
     22 C           4.8107    1.9336   -0.3555 C.ar    1  UNL1        0.0049
     23 S           3.3516    3.0182   -0.4780 S.2     1  UNL1       -0.0599
     24 C          -3.2459    0.6420   -1.2477 C.ar    1  UNL1        0.2649
     25 O          -2.6784    1.5450   -1.8993 O.2     1  UNL1       -0.2668
     26 N          -4.0138   -0.2243   -1.9267 N.ar    1  UNL1       -0.2634
     27 C          -4.1481   -0.0601   -3.3724 C.3     1  UNL1        0.0196
     28 C          -4.6853   -1.2439   -1.3870 C.ar    1  UNL1        0.3323
     29 O          -5.3966   -2.0347   -2.0649 O.2     1  UNL1       -0.2462
     30 N          -4.5674   -1.3923   -0.0635 N.ar    1  UNL1       -0.2904
     31 C          -5.2250   -2.4568    0.6236 C.3     1  UNL1        0.0172
     32 H          -0.9078    0.9314    3.8785 H       1  UNL1        0.0283
     33 H          -2.4989    1.4603    4.4148 H       1  UNL1        0.0283
     34 H          -1.5981    2.6031    3.4263 H       1  UNL1        0.0283
     35 H          -1.7681    3.2702    1.3407 H       1  UNL1        0.0407
     36 H          -1.9173    2.9342   -0.3694 H       1  UNL1        0.0407
     37 H           0.3103    2.1621   -1.5083 H       1  UNL1        0.1567
     38 H           3.3104   -1.8788   -0.2454 H       1  UNL1        0.0625
     39 H           4.6735   -3.9428   -0.0599 H       1  UNL1        0.0633
     40 H           6.8504    0.4422   -0.1790 H       1  UNL1        0.0639
     41 H           5.8426    2.2058   -0.3155 H       1  UNL1        0.0716
     42 H          -4.8495    0.8157   -3.4959 H       1  UNL1        0.0458
     43 H          -4.6204   -0.9227   -3.8389 H       1  UNL1        0.0458
     44 H          -3.1862    0.1312   -3.8581 H       1  UNL1        0.0458
     45 H          -6.2136   -2.1070    0.9745 H       1  UNL1        0.0457
     46 H          -5.3739   -3.3389   -0.0381 H       1  UNL1        0.0457
     47 H          -4.6855   -2.7938    1.5334 H       1  UNL1        0.0457
@<TRIPOS>BOND
     1     1     2    1
     2     2     3   ar
     3     3     4   ar
     4     4     5   ar
     5     5     6   ar
     6     6     7    1
     7     7     8    1
     8     8     9    2
     9     8    10   am
    10    10    11    1
    11    11    12   ar
    12    12    13   ar
    13    13    14    1
    14    14    15   ar
    15    15    16   ar
    16    16    17   ar
    17    17    18    1
    18    17    19   ar
    19    19    20    1
    20    19    21   ar
    21    13    22   ar
    22    22    23   ar
    23     5    24   ar
    24    24    25    2
    25    24    26   ar
    26    26    27    1
    27    26    28   ar
    28    28    29    2
    29    28    30   ar
    30    30    31    1
    31     6     2   ar
    32    23    11   ar
    33    30     4   ar
    34    21    14   ar
    35     1    32    1
    36     1    33    1
    37     1    34    1
    38     7    35    1
    39     7    36    1
    40    10    37    1
    41    15    38    1
    42    16    39    1
    43    21    40    1
    44    22    41    1
    45    27    42    1
    46    27    43    1
    47    27    44    1
    48    31    45    1
    49    31    46    1
    50    31    47    1
@<TRIPOS>MOLECULE
343311
 29 29 0 0 0
SMALL
GASTEIGER

@<TRIPOS>ATOM
      1 C          -4.2733    0.1653   -0.3483 C.3     1  UNL1       -0.0597
      2 C          -2.9051    0.7047   -0.1038 C.3     1  UNL1       -0.0098
      3 C          -1.8637   -0.3196   -0.2260 C.2     1  UNL1        0.0825
      4 N          -2.1263   -1.5348   -0.4830 N.2     1  UNL1       -0.0919
      5 O          -3.3413   -2.0763   -0.6806 O.2     1  UNL1       -0.4090
      6 C          -0.4226    0.0790   -0.0421 C.2     1  UNL1       -0.0255
      7 C          -0.1800    1.4975    0.2772 C.3     1  UNL1       -0.0379
      8 C           0.4835   -0.8481   -0.1551 C.2     1  UNL1       -0.0499
      9 C           1.8872   -0.4899    0.0135 C.ar    1  UNL1       -0.0246
     10 C           2.6974   -1.2497    0.8318 C.ar    1  UNL1       -0.0519
     11 C           4.0407   -0.9732    1.0282 C.ar    1  UNL1       -0.0259
     12 C           4.5390    0.1272    0.3466 C.ar    1  UNL1        0.1234
     13 F           5.8512    0.4412    0.5064 F       1  UNL1       -0.2055
     14 C           3.7394    0.8886   -0.4708 C.ar    1  UNL1       -0.0259
     15 C           2.4077    0.5963   -0.6517 C.ar    1  UNL1       -0.0519
     16 H          -4.4319   -0.2550   -1.3580 H       1  UNL1        0.0233
     17 H          -4.9751    1.0708   -0.2451 H       1  UNL1        0.0233
     18 H          -4.5657   -0.5672    0.4274 H       1  UNL1        0.0233
     19 H          -2.8302    1.0865    0.9660 H       1  UNL1        0.0327
     20 H          -2.7024    1.5667   -0.7998 H       1  UNL1        0.0327
     21 H          -3.6839   -2.9495   -0.3316 H       1  UNL1        0.3278
     22 H          -0.9822    1.8829    0.9793 H       1  UNL1        0.0278
     23 H          -0.3003    2.1209   -0.6295 H       1  UNL1        0.0278
     24 H           0.7781    1.7191    0.7523 H       1  UNL1        0.0278
     25 H           0.2361   -1.9002   -0.3741 H       1  UNL1        0.0627
     26 H           2.3143   -2.1219    1.3759 H       1  UNL1        0.0624
     27 H           4.6738   -1.5821    1.6801 H       1  UNL1        0.0646
     28 H           4.1603    1.7297   -0.9784 H       1  UNL1        0.0646
     29 H           1.7753    1.1914   -1.3081 H       1  UNL1        0.0624
@<TRIPOS>BOND
     1     1     2    1
     2     2     3    1
     3     3     4    2
     4     4     5    1
     5     3     6    1
     6     6     7    1
     7     6     8    2
     8     8     9    1
     9     9    10   ar
    10    10    11   ar
    11    11    12   ar
    12    12    13    1
    13    12    14   ar
    14    14    15   ar
    15    15     9   ar
    16     1    16    1
    17     1    17    1
    18     1    18    1
    19     2    19    1
    20     2    20    1
    21     5    21    1
    22     7    22    1
    23     7    23    1
    24     7    24    1
    25     8    25    1
    26    10    26    1
    27    11    27    1
    28    14    28    1
    29    15    29    1
@<TRIPOS>MOLECULE
343239
 53 56 0 0 0
SMALL
GASTEIGER

@<TRIPOS>ATOM
      1 C           9.0247   -0.8447    0.6282 C.3     1  UNL1       -0.0613
      2 C           7.8961   -1.8471    0.7469 C.3     1  UNL1       -0.0305
      3 C           6.6199   -1.2739    0.2154 C.ar    1  UNL1       -0.0476
      4 C           5.7775   -0.5875    1.0603 C.ar    1  UNL1       -0.0580
      5 C           4.5882   -0.0499    0.5837 C.ar    1  UNL1       -0.0523
      6 C           4.2114   -0.1798   -0.7291 C.ar    1  UNL1        0.0010
      7 C           2.9223    0.4065   -1.2328 C.ar    1  UNL1        0.0802
      8 C           2.5517    0.2709   -2.5522 C.ar    1  UNL1        0.0049
      9 S           0.9609    1.1469   -2.5833 S.2     1  UNL1       -0.0599
     10 C           1.0195    1.5629   -0.8505 C.ar    1  UNL1        0.1649
     11 N          -0.0663    2.3253   -0.2422 N.am    1  UNL1       -0.2644
     12 C          -1.1246    1.5847    0.2906 C.2     1  UNL1        0.2230
     13 O          -1.1237    0.3263    0.2380 O.2     1  UNL1       -0.2751
     14 C          -2.3148    2.2221    0.9508 C.3     1  UNL1        0.0503
     15 C          -3.3108    1.2407    1.4097 C.ar    1  UNL1       -0.0243
     16 C          -3.3870    0.8792    2.7497 C.ar    1  UNL1       -0.0573
     17 C          -4.2681   -0.0309    3.2636 C.ar    1  UNL1       -0.0595
     18 C          -5.1448   -0.6383    2.4108 C.ar    1  UNL1       -0.0373
     19 C          -5.1133   -0.3152    1.0635 C.ar    1  UNL1        0.0586
     20 C          -4.2037    0.6197    0.5541 C.ar    1  UNL1        0.0668
     21 C          -4.1996    0.9208   -0.7780 C.ar    1  UNL1        0.2643
     22 O          -3.3856    1.7607   -1.2405 O.2     1  UNL1       -0.2668
     23 N          -5.0698    0.3247   -1.6308 N.ar    1  UNL1       -0.2635
     24 C          -5.0237    0.6795   -3.0309 C.3     1  UNL1        0.0196
     25 C          -5.9322   -0.5673   -1.1257 C.ar    1  UNL1        0.3319
     26 O          -6.7446   -1.1309   -1.8910 O.2     1  UNL1       -0.2463
     27 N          -5.9538   -0.8783    0.1820 N.ar    1  UNL1       -0.2962
     28 C          -6.9057   -1.8494    0.6800 C.3     1  UNL1        0.0167
     29 N           2.0676    1.0745   -0.4871 N.ar    1  UNL1       -0.2246
     30 C           5.0468   -0.8608   -1.5686 C.ar    1  UNL1       -0.0523
     31 C           6.2501   -1.4090   -1.1026 C.ar    1  UNL1       -0.0580
     32 H           9.0221   -0.2513    1.5623 H       1  UNL1        0.0233
     33 H           8.7481   -0.1517   -0.2085 H       1  UNL1        0.0233
     34 H          10.0064   -1.3346    0.4480 H       1  UNL1        0.0233
     35 H           8.1819   -2.7145    0.1196 H       1  UNL1        0.0311
     36 H           7.7888   -2.2052    1.7866 H       1  UNL1        0.0311
     37 H           6.0740   -0.4831    2.1015 H       1  UNL1        0.0620
     38 H           3.9260    0.4894    1.2469 H       1  UNL1        0.0624
     39 H           3.0280   -0.2197   -3.4245 H       1  UNL1        0.0716
     40 H          -0.0570    3.3473   -0.2054 H       1  UNL1        0.1567
     41 H          -2.6885    3.1080    0.4502 H       1  UNL1        0.0407
     42 H          -1.8457    2.6464    1.8976 H       1  UNL1        0.0407
     43 H          -2.7029    1.3506    3.4270 H       1  UNL1        0.0621
     44 H          -4.2551   -0.2551    4.3444 H       1  UNL1        0.0618
     45 H          -5.8513   -1.3595    2.7829 H       1  UNL1        0.0638
     46 H          -6.0667    0.9049   -3.3622 H       1  UNL1        0.0458
     47 H          -4.4298    1.5978   -3.2086 H       1  UNL1        0.0458
     48 H          -4.6913   -0.1644   -3.6748 H       1  UNL1        0.0458
     49 H          -6.3642   -2.7833    0.9019 H       1  UNL1        0.0457
     50 H          -7.4662   -1.4508    1.5415 H       1  UNL1        0.0457
     51 H          -7.6748   -2.0419   -0.1202 H       1  UNL1        0.0457
     52 H           4.7670   -0.9767   -2.6187 H       1  UNL1        0.0624
     53 H           6.8868   -1.9350   -1.7697 H       1  UNL1        0.0620
@<TRIPOS>BOND
     1     1     2    1
     2     2     3    1
     3     3     4   ar
     4     4     5   ar
     5     5     6   ar
     6     6     7    1
     7     7     8   ar
     8     8     9   ar
     9     9    10   ar
    10    10    11    1
    11    11    12   am
    12    12    13    2
    13    12    14    1
    14    14    15    1
    15    15    16   ar
    16    16    17   ar
    17    17    18   ar
    18    18    19   ar
    19    19    20   ar
    20    20    21   ar
    21    21    22    2
    22    21    23   ar
    23    23    24    1
    24    23    25   ar
    25    25    26    2
    26    25    27   ar
    27    27    28    1
    28    10    29   ar
    29     6    30   ar
    30    30    31   ar
    31    31     3   ar
    32    29     7   ar
    33    20    15   ar
    34    27    19   ar
    35     1    32    1
    36     1    33    1
    37     1    34    1
    38     2    35    1
    39     2    36    1
    40     4    37    1
    41     5    38    1
    42     8    39    1
    43    11    40    1
    44    14    41    1
    45    14    42    1
    46    16    43    1
    47    17    44    1
    48    18    45    1
    49    24    46    1
    50    24    47    1
    51    24    48    1
    52    28    49    1
    53    28    50    1
    54    28    51    1
    55    30    52    1
    56    31    53    1
@<TRIPOS>MOLECULE
343270
 54 57 0 0 0
SMALL
GASTEIGER

@<TRIPOS>ATOM
      1 C          -2.1041    3.6167   -1.4944 C.3     1  UNL1       -0.0608
      2 C          -1.5907    2.9494   -0.2429 C.3     1  UNL1       -0.0239
      3 C          -2.6095    2.0116    0.2351 C.ar    1  UNL1       -0.0041
      4 S          -3.6971    2.3204    1.6538 S.2     1  UNL1       -0.0749
      5 C          -4.5586    0.7813    1.5514 C.ar    1  UNL1        0.0967
      6 C          -3.9810    0.1404    0.4699 C.ar    1  UNL1        0.0744
      7 C          -2.9915    0.7833   -0.1864 C.ar    1  UNL1       -0.0140
      8 C          -2.2763    0.1939   -1.3861 C.3     1  UNL1        0.0510
      9 C          -0.9529   -0.3079   -1.0218 C.2     1  UNL1        0.2230
     10 O          -0.5887   -0.1945    0.1861 O.2     1  UNL1       -0.2751
     11 N          -0.0381   -0.9111   -1.9002 N.am    1  UNL1       -0.2644
     12 C           1.2252   -1.3761   -1.4913 C.ar    1  UNL1        0.1649
     13 N           2.3664   -1.0333   -1.3610 N.ar    1  UNL1       -0.2246
     14 C           3.4023   -1.6744   -0.9457 C.ar    1  UNL1        0.0804
     15 C           4.7767   -1.0793   -0.8465 C.ar    1  UNL1        0.0066
     16 C           5.8273   -1.8337   -0.3925 C.ar    1  UNL1       -0.0134
     17 C           7.0964   -1.3050   -0.2961 C.ar    1  UNL1        0.1685
     18 F           8.1345   -2.0637    0.1564 F       1  UNL1       -0.2015
     19 C           7.3574    0.0082   -0.6544 C.ar    1  UNL1        0.1969
     20 O           8.6426    0.5350   -0.5540 O.3     1  UNL1       -0.4284
     21 C           8.9900    1.1562    0.6870 C.3     1  UNL1        0.3894
     22 F          10.1065    0.5359    1.2511 F       1  UNL1       -0.1663
     23 F           9.3838    2.4517    0.3684 F       1  UNL1       -0.1663
     24 C           6.2901    0.7529   -1.1088 C.ar    1  UNL1        0.1685
     25 F           6.5315    2.0514   -1.4664 F       1  UNL1       -0.2015
     26 C           5.0198    0.2258   -1.2060 C.ar    1  UNL1       -0.0134
     27 C           3.1794   -3.0159   -0.5736 C.ar    1  UNL1        0.0049
     28 S           1.4067   -3.1634   -0.8960 S.2     1  UNL1       -0.0599
     29 C          -4.5485   -1.1285    0.2361 C.ar    1  UNL1        0.2649
     30 O          -4.1364   -1.8590   -0.7193 O.2     1  UNL1       -0.2668
     31 N          -5.5250   -1.6408    0.9737 N.ar    1  UNL1       -0.2634
     32 C          -6.0649   -2.9814    0.6617 C.3     1  UNL1        0.0196
     33 C          -6.0439   -0.9715    2.0079 C.ar    1  UNL1        0.3323
     34 O          -6.9613   -1.4458    2.7049 O.2     1  UNL1       -0.2462
     35 N          -5.5539    0.2442    2.2925 N.ar    1  UNL1       -0.2904
     36 C          -6.0573    1.0399    3.3961 C.3     1  UNL1        0.0172
     37 H          -1.4208    3.4011   -2.3325 H       1  UNL1        0.0233
     38 H          -2.1948    4.7310   -1.3628 H       1  UNL1        0.0233
     39 H          -3.0967    3.2269   -1.8013 H       1  UNL1        0.0233
     40 H          -1.3880    3.7585    0.4998 H       1  UNL1        0.0316
     41 H          -0.6214    2.4767   -0.4747 H       1  UNL1        0.0316
     42 H          -2.1156    1.0572   -2.0874 H       1  UNL1        0.0407
     43 H          -2.8508   -0.5281   -1.9410 H       1  UNL1        0.0407
     44 H          -0.3369   -1.0100   -2.9151 H       1  UNL1        0.1567
     45 H           5.6560   -2.8533   -0.1075 H       1  UNL1        0.0654
     46 H           8.1665    1.1349    1.4116 H       1  UNL1        0.1520
     47 H           4.1884    0.8271   -1.5665 H       1  UNL1        0.0654
     48 H           3.8236   -3.7768   -0.2025 H       1  UNL1        0.0716
     49 H          -7.0253   -2.8962    0.1135 H       1  UNL1        0.0458
     50 H          -5.3134   -3.5174    0.0748 H       1  UNL1        0.0458
     51 H          -6.2709   -3.5035    1.6108 H       1  UNL1        0.0458
     52 H          -7.1680    1.0778    3.3239 H       1  UNL1        0.0457
     53 H          -5.7847    0.5060    4.3245 H       1  UNL1        0.0457
     54 H          -5.7042    2.0749    3.3455 H       1  UNL1        0.0457
@<TRIPOS>BOND
     1     1     2    1
     2     2     3    1
     3     3     4   ar
     4     4     5   ar
     5     5     6   ar
     6     6     7   ar
     7     7     8    1
     8     8     9    1
     9     9    10    2
    10     9    11   am
    11    11    12    1
    12    12    13   ar
    13    13    14   ar
    14    14    15    1
    15    15    16   ar
    16    16    17   ar
    17    17    18    1
    18    17    19   ar
    19    19    20    1
    20    20    21    1
    21    21    22    1
    22    21    23    1
    23    19    24   ar
    24    24    25    1
    25    24    26   ar
    26    14    27   ar
    27    27    28   ar
    28     6    29   ar
    29    29    30    2
    30    29    31   ar
    31    31    32    1
    32    31    33   ar
    33    33    34    2
    34    33    35   ar
    35    35    36    1
    36     7     3   ar
    37    28    12   ar
    38    35     5   ar
    39    26    15   ar
    40     1    37    1
    41     1    38    1
    42     1    39    1
    43     2    40    1
    44     2    41    1
    45     8    42    1
    46     8    43    1
    47    11    44    1
    48    16    45    1
    49    21    46    1
    50    26    47    1
    51    27    48    1
    52    32    49    1
    53    32    50    1
    54    32    51    1
    55    36    52    1
    56    36    53    1
    57    36    54    1
@<TRIPOS>MOLECULE
343271
 57 60 0 0 0
SMALL
GASTEIGER

@<TRIPOS>ATOM
      1 C          -2.6059    1.3802    3.9619 C.3     1  UNL1       -0.0608
      2 C          -3.9354    0.7282    3.7099 C.3     1  UNL1       -0.0239
      3 C          -4.1986    0.6475    2.2642 C.ar    1  UNL1       -0.0041
      4 S          -5.0678    1.9647    1.4002 S.2     1  UNL1       -0.0749
      5 C          -4.9562    1.2427   -0.2126 C.ar    1  UNL1        0.0967
      6 C          -4.2818    0.0705    0.0007 C.ar    1  UNL1        0.0744
      7 C          -3.8941   -0.2322    1.2715 C.ar    1  UNL1       -0.0140
      8 C          -3.1757   -1.5205    1.5743 C.3     1  UNL1        0.0510
      9 C          -1.7526   -1.4326    1.8289 C.2     1  UNL1        0.2230
     10 O          -1.2877   -1.1963    2.9726 O.2     1  UNL1       -0.2751
     11 N          -0.7310   -1.5978    0.8182 N.am    1  UNL1       -0.2644
     12 C           0.6462   -1.5031    1.1398 C.ar    1  UNL1        0.1649
     13 N           1.7316   -1.3933    0.6280 N.ar    1  UNL1       -0.2246
     14 C           2.9063   -1.3713    1.0934 C.ar    1  UNL1        0.0804
     15 C           4.1952   -1.1850    0.3554 C.ar    1  UNL1        0.0066
     16 C           5.4080   -1.1983    0.9819 C.ar    1  UNL1       -0.0134
     17 C           6.5821   -0.9850    0.2705 C.ar    1  UNL1        0.1683
     18 F           7.7820   -0.9929    0.8683 F       1  UNL1       -0.2015
     19 C           6.5333   -0.7534   -1.0979 C.ar    1  UNL1        0.1909
     20 O           7.7444   -0.5417   -1.7898 O.3     1  UNL1       -0.4773
     21 C           8.3187    0.7184   -1.8572 C.3     1  UNL1        0.1844
     22 C           7.4741    1.7470   -2.5111 C.3     1  UNL1        0.4236
     23 F           8.1557    2.9652   -2.5069 F       1  UNL1       -0.1671
     24 F           7.2873    1.4286   -3.8475 F       1  UNL1       -0.1671
     25 F           6.2997    1.9311   -1.8261 F       1  UNL1       -0.1671
     26 C           5.3215   -0.7412   -1.7259 C.ar    1  UNL1        0.1683
     27 F           5.2402   -0.5351   -3.0769 F       1  UNL1       -0.2015
     28 C           4.1600   -0.9577   -0.9943 C.ar    1  UNL1       -0.0134
     29 C           2.9999   -1.5080    2.5679 C.ar    1  UNL1        0.0049
     30 S           1.2026   -1.6424    2.9284 S.2     1  UNL1       -0.0599
     31 C          -4.1054   -0.6663   -1.1930 C.ar    1  UNL1        0.2649
     32 O          -3.5143   -1.7711   -1.2209 O.2     1  UNL1       -0.2668
     33 N          -4.5542   -0.2426   -2.3815 N.ar    1  UNL1       -0.2634
     34 C          -4.3420   -1.1165   -3.5665 C.3     1  UNL1        0.0196
     35 C          -5.1983    0.9085   -2.5109 C.ar    1  UNL1        0.3323
     36 O          -5.6047    1.2867   -3.6220 O.2     1  UNL1       -0.2462
     37 N          -5.4064    1.6638   -1.4250 N.ar    1  UNL1       -0.2904
     38 C          -6.1030    2.9449   -1.4657 C.3     1  UNL1        0.0172
     39 H          -2.7214    2.4219    4.3980 H       1  UNL1        0.0233
     40 H          -2.0090    0.7659    4.6787 H       1  UNL1        0.0233
     41 H          -2.0998    1.5194    2.9866 H       1  UNL1        0.0233
     42 H          -4.7177    1.3101    4.2255 H       1  UNL1        0.0316
     43 H          -3.9040   -0.3098    4.0940 H       1  UNL1        0.0316
     44 H          -3.4017   -2.3329    0.8752 H       1  UNL1        0.0407
     45 H          -3.6993   -1.8794    2.5370 H       1  UNL1        0.0407
     46 H          -1.0704   -1.7911   -0.1415 H       1  UNL1        0.1567
     47 H           5.4752   -1.3780    2.0571 H       1  UNL1        0.0654
     48 H           9.3122    0.6853   -2.3809 H       1  UNL1        0.0788
     49 H           8.5375    1.0964   -0.8128 H       1  UNL1        0.0788
     50 H           3.2268   -0.9397   -1.5261 H       1  UNL1        0.0654
     51 H           3.7838   -1.5243    3.1698 H       1  UNL1        0.0716
     52 H          -4.5352   -0.4926   -4.4401 H       1  UNL1        0.0458
     53 H          -3.3872   -1.6336   -3.5406 H       1  UNL1        0.0458
     54 H          -5.1811   -1.8713   -3.4822 H       1  UNL1        0.0458
     55 H          -5.4060    3.7727   -1.6723 H       1  UNL1        0.0457
     56 H          -6.6300    3.1622   -0.5182 H       1  UNL1        0.0457
     57 H          -6.8463    2.8752   -2.3115 H       1  UNL1        0.0457
@<TRIPOS>BOND
     1     1     2    1
     2     2     3    1
     3     3     4   ar
     4     4     5   ar
     5     5     6   ar
     6     6     7   ar
     7     7     8    1
     8     8     9    1
     9     9    10    2
    10     9    11   am
    11    11    12    1
    12    12    13   ar
    13    13    14   ar
    14    14    15    1
    15    15    16   ar
    16    16    17   ar
    17    17    18    1
    18    17    19   ar
    19    19    20    1
    20    20    21    1
    21    21    22    1
    22    22    23    1
    23    22    24    1
    24    22    25    1
    25    19    26   ar
    26    26    27    1
    27    26    28   ar
    28    14    29   ar
    29    29    30   ar
    30     6    31   ar
    31    31    32    2
    32    31    33   ar
    33    33    34    1
    34    33    35   ar
    35    35    36    2
    36    35    37   ar
    37    37    38    1
    38     7     3   ar
    39    30    12   ar
    40    37     5   ar
    41    28    15   ar
    42     1    39    1
    43     1    40    1
    44     1    41    1
    45     2    42    1
    46     2    43    1
    47     8    44    1
    48     8    45    1
    49    11    46    1
    50    16    47    1
    51    21    48    1
    52    21    49    1
    53    28    50    1
    54    29    51    1
    55    34    52    1
    56    34    53    1
    57    34    54    1
    58    38    55    1
    59    38    56    1
    60    38    57    1
@<TRIPOS>MOLECULE
343272
 53 56 0 0 0
SMALL
GASTEIGER

@<TRIPOS>ATOM
      1 C          -2.9503    2.9524   -3.3919 C.3     1  UNL1       -0.0608
      2 C          -1.9994    2.8219   -2.2068 C.3     1  UNL1       -0.0239
      3 C          -2.5797    1.9854   -1.1698 C.ar    1  UNL1       -0.0041
      4 S          -3.2934    2.6983    0.3435 S.2     1  UNL1       -0.0749
      5 C          -3.7971    1.1420    1.0657 C.ar    1  UNL1        0.0967
      6 C          -3.4001    0.2201    0.1377 C.ar    1  UNL1        0.0744
      7 C          -2.7845    0.6648   -0.9876 C.ar    1  UNL1       -0.0140
      8 C          -2.2780   -0.3257   -2.0526 C.3     1  UNL1        0.0510
      9 C          -0.8377   -0.5369   -1.9425 C.2     1  UNL1        0.2230
     10 O           0.0025    0.2745   -2.4620 O.2     1  UNL1       -0.2751
     11 N          -0.1887   -1.6279   -1.2625 N.am    1  UNL1       -0.2644
     12 C           1.2273   -1.7103   -1.2233 C.ar    1  UNL1        0.1649
     13 N           2.2207   -1.3376   -0.7129 N.ar    1  UNL1       -0.2246
     14 C           3.4521   -1.6238   -0.8848 C.ar    1  UNL1        0.0803
     15 C           4.6066   -1.0074   -0.1562 C.ar    1  UNL1        0.0037
     16 C           4.3985   -0.0345    0.7966 C.ar    1  UNL1       -0.0518
     17 C           5.4730    0.5432    1.4518 C.ar    1  UNL1       -0.0467
     18 C           6.7736    0.1675    1.1736 C.ar    1  UNL1        0.0899
     19 C           7.9398    0.7612    1.8503 C.3     1  UNL1        0.4201
     20 F           8.6377   -0.2394    2.5244 F       1  UNL1       -0.1658
     21 F           8.8291    1.2554    0.8855 F       1  UNL1       -0.1658
     22 F           7.5888    1.8096    2.6495 F       1  UNL1       -0.1658
     23 C           6.9814   -0.8043    0.2220 C.ar    1  UNL1        0.1356
     24 F           8.2424   -1.1912   -0.0695 F       1  UNL1       -0.2049
     25 C           5.8850   -1.3743   -0.4251 C.ar    1  UNL1       -0.0167
     26 C           3.7190   -2.6079   -1.9092 C.ar    1  UNL1        0.0049
     27 S           1.9699   -2.9279   -2.4481 S.2     1  UNL1       -0.0599
     28 C          -3.7284   -1.1056    0.5216 C.ar    1  UNL1        0.2649
     29 O          -3.4494   -2.0933   -0.1943 O.2     1  UNL1       -0.2668
     30 N          -4.3555   -1.3846    1.6694 N.ar    1  UNL1       -0.2634
     31 C          -4.6812   -2.7925    1.9954 C.3     1  UNL1        0.0196
     32 C          -4.7118   -0.4213    2.5316 C.ar    1  UNL1        0.3323
     33 O          -5.2910   -0.7304    3.5866 O.2     1  UNL1       -0.2462
     34 N          -4.4305    0.8576    2.2290 N.ar    1  UNL1       -0.2904
     35 C          -4.7990    1.9238    3.1483 C.3     1  UNL1        0.0172
     36 H          -2.9735    4.0244   -3.7436 H       1  UNL1        0.0233
     37 H          -3.9829    2.6714   -3.0854 H       1  UNL1        0.0233
     38 H          -2.6359    2.2836   -4.2176 H       1  UNL1        0.0233
     39 H          -1.9383    3.8817   -1.7949 H       1  UNL1        0.0316
     40 H          -1.0168    2.6187   -2.5793 H       1  UNL1        0.0316
     41 H          -2.9181   -1.1966   -2.1345 H       1  UNL1        0.0407
     42 H          -2.4268    0.2115   -3.0490 H       1  UNL1        0.0407
     43 H          -0.8011   -2.3306   -0.8147 H       1  UNL1        0.1567
     44 H           3.3944    0.2611    1.0163 H       1  UNL1        0.0624
     45 H           5.3525    1.3039    2.2042 H       1  UNL1        0.0624
     46 H           6.1289   -2.1391   -1.1672 H       1  UNL1        0.0653
     47 H           4.5682   -3.0381   -2.2730 H       1  UNL1        0.0716
     48 H          -4.2135   -3.0349    2.9540 H       1  UNL1        0.0458
     49 H          -4.3528   -3.4310    1.1791 H       1  UNL1        0.0458
     50 H          -5.8060   -2.8847    2.0632 H       1  UNL1        0.0458
     51 H          -4.7354    1.5871    4.2036 H       1  UNL1        0.0457
     52 H          -4.1668    2.8204    2.9917 H       1  UNL1        0.0457
     53 H          -5.8678    2.1918    2.9637 H       1  UNL1        0.0457
@<TRIPOS>BOND
     1     1     2    1
     2     2     3    1
     3     3     4   ar
     4     4     5   ar
     5     5     6   ar
     6     6     7   ar
     7     7     8    1
     8     8     9    1
     9     9    10    2
    10     9    11   am
    11    11    12    1
    12    12    13   ar
    13    13    14   ar
    14    14    15    1
    15    15    16   ar
    16    16    17   ar
    17    17    18   ar
    18    18    19    1
    19    19    20    1
    20    19    21    1
    21    19    22    1
    22    18    23   ar
    23    23    24    1
    24    23    25   ar
    25    14    26   ar
    26    26    27   ar
    27     6    28   ar
    28    28    29    2
    29    28    30   ar
    30    30    31    1
    31    30    32   ar
    32    32    33    2
    33    32    34   ar
    34    34    35    1
    35     7     3   ar
    36    27    12   ar
    37    34     5   ar
    38    25    15   ar
    39     1    36    1
    40     1    37    1
    41     1    38    1
    42     2    39    1
    43     2    40    1
    44     8    41    1
    45     8    42    1
    46    11    43    1
    47    16    44    1
    48    17    45    1
    49    25    46    1
    50    26    47    1
    51    31    48    1
    52    31    49    1
    53    31    50    1
    54    35    51    1
    55    35    52    1
    56    35    53    1
@<TRIPOS>MOLECULE
343230
 48 51 0 0 0
SMALL
GASTEIGER

@<TRIPOS>ATOM
      1 C           4.4010    3.3159    0.4250 C.3     1  UNL1        0.0196
      2 N           4.3160    1.8960    0.2241 N.ar    1  UNL1       -0.2635
      3 C           3.3045    1.3563   -0.4935 C.ar    1  UNL1        0.2643
      4 O           2.4237    2.0644   -0.9983 O.2     1  UNL1       -0.2668
      5 C           3.2542   -0.0025   -0.6712 C.ar    1  UNL1        0.0668
      6 C           2.2602   -0.5726   -1.4062 C.ar    1  UNL1       -0.0243
      7 C           1.0935    0.0960   -1.9660 C.3     1  UNL1        0.0502
      8 C          -0.0611    0.2517   -1.0650 C.2     1  UNL1        0.2226
      9 O          -0.2160    1.2153   -0.3147 O.2     1  UNL1       -0.2751
     10 N          -1.0723   -0.7586   -1.0361 N.am    1  UNL1       -0.2687
     11 C          -2.1975   -0.6101   -0.1869 C.ar    1  UNL1        0.1472
     12 C          -2.2931   -0.8210    1.1585 C.ar    1  UNL1       -0.0017
     13 C          -3.6086   -0.6045    1.5885 C.ar    1  UNL1        0.0331
     14 N          -4.2748   -0.2661    0.4805 N.ar    1  UNL1       -0.2381
     15 C          -5.6739    0.0270    0.4498 C.ar    1  UNL1        0.0655
     16 C          -6.5095   -0.1961    1.5127 C.ar    1  UNL1       -0.0349
     17 C          -7.8602    0.0904    1.4244 C.ar    1  UNL1       -0.0414
     18 C          -8.3645    0.6062    0.2554 C.ar    1  UNL1        0.0411
     19 CL        -10.0855    0.9898    0.0790 Cl      1  UNL1       -0.0835
     20 C          -7.5345    0.8355   -0.8169 C.ar    1  UNL1       -0.0414
     21 C          -6.2047    0.5495   -0.7232 C.ar    1  UNL1       -0.0349
     22 N          -3.4589   -0.2599   -0.5920 N.ar    1  UNL1       -0.1511
     23 C           2.3409   -1.9896   -1.5447 C.ar    1  UNL1       -0.0573
     24 C           3.3433   -2.7212   -0.9760 C.ar    1  UNL1       -0.0595
     25 C           4.3211   -2.1019   -0.2398 C.ar    1  UNL1       -0.0373
     26 C           4.2766   -0.7454   -0.0866 C.ar    1  UNL1        0.0586
     27 N           5.2829   -0.2005    0.6276 N.ar    1  UNL1       -0.2962
     28 C           6.3297   -1.0297    1.2241 C.3     1  UNL1        0.0167
     29 C           5.2816    1.1358    0.7714 C.ar    1  UNL1        0.3319
     30 O           6.2328    1.6381    1.4469 O.2     1  UNL1       -0.2463
     31 H           5.1485    3.7006   -0.3281 H       1  UNL1        0.0458
     32 H           4.8900    3.5731    1.4121 H       1  UNL1        0.0458
     33 H           3.4521    3.8586    0.2907 H       1  UNL1        0.0458
     34 H           0.7096   -0.5870   -2.8001 H       1  UNL1        0.0407
     35 H           1.2807    1.0195   -2.5543 H       1  UNL1        0.0407
     36 H          -0.9639   -1.5961   -1.6418 H       1  UNL1        0.1563
     37 H          -1.4600   -1.1117    1.8137 H       1  UNL1        0.0668
     38 H          -3.9719   -0.6967    2.6108 H       1  UNL1        0.0831
     39 H          -6.1141   -0.6052    2.4395 H       1  UNL1        0.0639
     40 H          -8.5005   -0.0970    2.2752 H       1  UNL1        0.0633
     41 H          -7.9252    1.2346   -1.7257 H       1  UNL1        0.0633
     42 H          -5.5314    0.7208   -1.5473 H       1  UNL1        0.0639
     43 H           1.5669   -2.4567   -2.1261 H       1  UNL1        0.0621
     44 H           3.3777   -3.7854   -1.0991 H       1  UNL1        0.0618
     45 H           5.1305   -2.6832    0.2251 H       1  UNL1        0.0638
     46 H           5.9165   -1.7007    2.0146 H       1  UNL1        0.0457
     47 H           6.8837   -1.5915    0.4440 H       1  UNL1        0.0457
     48 H           7.0635   -0.3841    1.7442 H       1  UNL1        0.0457
@<TRIPOS>BOND
     1     1     2    1
     2     2     3   ar
     3     3     4    2
     4     3     5   ar
     5     5     6   ar
     6     6     7    1
     7     7     8    1
     8     8     9    2
     9     8    10   am
    10    10    11    1
    11    11    12   ar
    12    12    13   ar
    13    13    14   ar
    14    14    15    1
    15    15    16   ar
    16    16    17   ar
    17    17    18   ar
    18    18    19    1
    19    18    20   ar
    20    20    21   ar
    21    14    22   ar
    22     6    23   ar
    23    23    24   ar
    24    24    25   ar
    25    25    26   ar
    26    26    27   ar
    27    27    28    1
    28    27    29   ar
    29    29    30    2
    30    29     2   ar
    31    26     5   ar
    32    22    11   ar
    33    21    15   ar
    34     1    31    1
    35     1    32    1
    36     1    33    1
    37     7    34    1
    38     7    35    1
    39    10    36    1
    40    12    37    1
    41    13    38    1
    42    16    39    1
    43    17    40    1
    44    20    41    1
    45    21    42    1
    46    23    43    1
    47    24    44    1
    48    25    45    1
    49    28    46    1
    50    28    47    1
    51    28    48    1
@<TRIPOS>MOLECULE
343238
 51 54 0 0 0
SMALL
GASTEIGER

@<TRIPOS>ATOM
      1 C          -3.0891    2.9877    1.0217 C.3     1  UNL1        0.0196
      2 N          -3.6998    1.7125    0.7624 N.ar    1  UNL1       -0.2635
      3 C          -3.2144    0.9144   -0.2246 C.ar    1  UNL1        0.2643
      4 O          -2.2345    1.3280   -0.8858 O.2     1  UNL1       -0.2668
      5 C          -3.7425   -0.3057   -0.5251 C.ar    1  UNL1        0.0668
      6 C          -3.1908   -1.0557   -1.5478 C.ar    1  UNL1       -0.0243
      7 C          -2.0356   -0.6543   -2.3589 C.3     1  UNL1        0.0502
      8 C          -0.7314   -0.8393   -1.6508 C.2     1  UNL1        0.2226
      9 O          -0.7501   -1.3144   -0.5007 O.2     1  UNL1       -0.2751
     10 N           0.5012   -0.5013   -2.2268 N.am    1  UNL1       -0.2687
     11 C           1.7662   -0.6552   -1.6009 C.ar    1  UNL1        0.1472
     12 C           2.5461   -1.7863   -1.6848 C.ar    1  UNL1       -0.0017
     13 C           3.6760   -1.5400   -0.9531 C.ar    1  UNL1        0.0331
     14 N           3.5840   -0.3017   -0.4430 N.ar    1  UNL1       -0.2381
     15 C           4.5756    0.3353    0.3895 C.ar    1  UNL1        0.0659
     16 C           4.2212    1.0487    1.5091 C.ar    1  UNL1       -0.0362
     17 C           5.2195    1.6408    2.2712 C.ar    1  UNL1       -0.0592
     18 C           6.5580    1.5456    1.9551 C.ar    1  UNL1       -0.0500
     19 C           6.9008    0.8267    0.8287 C.ar    1  UNL1        0.0568
     20 C           8.3311    0.7045    0.4602 C.3     1  UNL1        0.4175
     21 F           8.7060    1.7285   -0.3954 F       1  UNL1       -0.1659
     22 F           9.0962    0.7705    1.6168 F       1  UNL1       -0.1659
     23 F           8.5203   -0.5046   -0.1778 F       1  UNL1       -0.1659
     24 C           5.8999    0.2349    0.0673 C.ar    1  UNL1       -0.0246
     25 N           2.4526    0.2079   -0.8335 N.ar    1  UNL1       -0.1511
     26 C          -3.8216   -2.2877   -1.7650 C.ar    1  UNL1       -0.0573
     27 C          -4.8961   -2.7313   -1.0363 C.ar    1  UNL1       -0.0595
     28 C          -5.3919   -1.9473   -0.0436 C.ar    1  UNL1       -0.0373
     29 C          -4.8249   -0.7330    0.2224 C.ar    1  UNL1        0.0586
     30 N          -5.2982    0.0782    1.2061 N.ar    1  UNL1       -0.2962
     31 C          -6.4384   -0.4241    1.9603 C.3     1  UNL1        0.0167
     32 C          -4.7452    1.2700    1.4650 C.ar    1  UNL1        0.3319
     33 O          -5.2024    2.0001    2.3800 O.2     1  UNL1       -0.2463
     34 H          -3.8448    3.8118    1.0896 H       1  UNL1        0.0458
     35 H          -2.4952    2.9245    1.9675 H       1  UNL1        0.0458
     36 H          -2.3669    3.2443    0.2179 H       1  UNL1        0.0458
     37 H          -2.1230    0.2809   -2.9136 H       1  UNL1        0.0407
     38 H          -1.9529   -1.4245   -3.1934 H       1  UNL1        0.0407
     39 H           0.4896   -0.0987   -3.2074 H       1  UNL1        0.1563
     40 H           2.2886   -2.7021   -2.2404 H       1  UNL1        0.0668
     41 H           4.4992   -2.2566   -0.8253 H       1  UNL1        0.0831
     42 H           3.1667    1.1272    1.7638 H       1  UNL1        0.0639
     43 H           4.9425    2.2070    3.1584 H       1  UNL1        0.0618
     44 H           7.3097    2.0295    2.5864 H       1  UNL1        0.0623
     45 H           6.1589   -0.3331   -0.8213 H       1  UNL1        0.0644
     46 H          -3.4401   -2.9183   -2.5468 H       1  UNL1        0.0621
     47 H          -5.3650   -3.6963   -1.2300 H       1  UNL1        0.0618
     48 H          -6.2524   -2.3037    0.5392 H       1  UNL1        0.0638
     49 H          -7.2908   -0.6390    1.2547 H       1  UNL1        0.0457
     50 H          -6.1416   -1.3549    2.4868 H       1  UNL1        0.0457
     51 H          -6.8303    0.3496    2.6540 H       1  UNL1        0.0457
@<TRIPOS>BOND
     1     1     2    1
     2     2     3   ar
     3     3     4    2
     4     3     5   ar
     5     5     6   ar
     6     6     7    1
     7     7     8    1
     8     8     9    2
     9     8    10   am
    10    10    11    1
    11    11    12   ar
    12    12    13   ar
    13    13    14   ar
    14    14    15    1
    15    15    16   ar
    16    16    17   ar
    17    17    18   ar
    18    18    19   ar
    19    19    20    1
    20    20    21    1
    21    20    22    1
    22    20    23    1
    23    19    24   ar
    24    14    25   ar
    25     6    26   ar
    26    26    27   ar
    27    27    28   ar
    28    28    29   ar
    29    29    30   ar
    30    30    31    1
    31    30    32   ar
    32    32    33    2
    33    32     2   ar
    34    29     5   ar
    35    25    11   ar
    36    24    15   ar
    37     1    34    1
    38     1    35    1
    39     1    36    1
    40     7    37    1
    41     7    38    1
    42    10    39    1
    43    12    40    1
    44    13    41    1
    45    16    42    1
    46    17    43    1
    47    18    44    1
    48    24    45    1
    49    26    46    1
    50    27    47    1
    51    28    48    1
    52    31    49    1
    53    31    50    1
    54    31    51    1
@<TRIPOS>MOLECULE
343279
 51 54 0 0 0
SMALL
GASTEIGER

@<TRIPOS>ATOM
      1 C          -5.3362    2.7836    0.5357 C.3     1  UNL1        0.0196
      2 N          -5.5884    1.3449    0.5096 N.ar    1  UNL1       -0.2633
      3 C          -4.7507    0.5442   -0.1881 C.ar    1  UNL1        0.2675
      4 O          -3.7591    1.0286   -0.8133 O.2     1  UNL1       -0.2667
      5 C          -4.9420   -0.8077   -0.2439 C.ar    1  UNL1        0.1062
      6 C          -4.2704   -1.8607   -0.8608 C.ar    1  UNL1        0.0137
      7 C          -3.0592   -1.6710   -1.6791 C.3     1  UNL1        0.0532
      8 C          -1.8616   -1.4240   -0.8355 C.2     1  UNL1        0.2231
      9 O          -2.0295   -1.4116    0.4060 O.2     1  UNL1       -0.2751
     10 N          -0.5779   -1.2089   -1.3716 N.am    1  UNL1       -0.2644
     11 C           0.5981   -0.9638   -0.5118 C.ar    1  UNL1        0.1649
     12 N           1.7144   -0.7622   -0.5369 N.ar    1  UNL1       -0.2246
     13 C           2.5823   -0.5663    0.4477 C.ar    1  UNL1        0.0803
     14 C           4.0276   -0.3133    0.2032 C.ar    1  UNL1        0.0039
     15 C           4.8645   -0.1190    1.2768 C.ar    1  UNL1       -0.0305
     16 C           6.1992    0.1185    1.1408 C.ar    1  UNL1        0.0846
     17 CL          7.2542    0.3659    2.5348 Cl      1  UNL1       -0.0797
     18 C           6.7956    0.1771   -0.1321 C.ar    1  UNL1        0.1574
     19 O           8.1396    0.4168   -0.2297 O.3     1  UNL1       -0.4801
     20 C           8.8213    1.6124   -0.2770 C.3     1  UNL1        0.1843
     21 C           8.5289    2.5446   -1.4071 C.3     1  UNL1        0.4236
     22 F           7.2245    2.9322   -1.4688 F       1  UNL1       -0.1671
     23 F           9.2399    3.7535   -1.1655 F       1  UNL1       -0.1671
     24 F           9.0453    2.1152   -2.6132 F       1  UNL1       -0.1671
     25 C           5.9545   -0.0185   -1.1945 C.ar    1  UNL1        0.0846
     26 CL          6.6239    0.0065   -2.8338 Cl      1  UNL1       -0.0797
     27 C           4.5852   -0.2608   -1.0353 C.ar    1  UNL1       -0.0305
     28 C           2.0384   -0.6175    1.6665 C.ar    1  UNL1        0.0049
     29 S           0.2892   -0.9469    1.3626 S.2     1  UNL1       -0.0599
     30 C          -4.9750   -2.9862   -0.5264 C.ar    1  UNL1        0.0988
     31 O          -5.9833   -2.6387    0.2269 O.2     1  UNL1       -0.4460
     32 C          -6.0202   -1.3468    0.4339 C.ar    1  UNL1        0.2171
     33 N          -6.8692   -0.5473    1.1394 N.ar    1  UNL1       -0.2667
     34 C          -7.9965   -1.1132    1.8475 C.3     1  UNL1        0.0194
     35 C          -6.6225    0.7853    1.1538 C.ar    1  UNL1        0.3341
     36 O          -7.4089    1.5326    1.8083 O.2     1  UNL1       -0.2462
     37 H          -4.6605    3.0405   -0.3225 H       1  UNL1        0.0458
     38 H          -6.2903    3.2828    0.3353 H       1  UNL1        0.0458
     39 H          -4.8752    3.1108    1.4805 H       1  UNL1        0.0458
     40 H          -2.9163   -2.5495   -2.3484 H       1  UNL1        0.0408
     41 H          -3.2323   -0.8044   -2.3551 H       1  UNL1        0.0408
     42 H          -0.4592   -1.2234   -2.3866 H       1  UNL1        0.1567
     43 H           4.4397   -0.1567    2.2844 H       1  UNL1        0.0640
     44 H           8.6118    2.1735    0.6769 H       1  UNL1        0.0788
     45 H           9.9121    1.3757   -0.2139 H       1  UNL1        0.0788
     46 H           3.9697   -0.4061   -1.8989 H       1  UNL1        0.0640
     47 H           2.4851   -0.4950    2.7172 H       1  UNL1        0.0716
     48 H          -4.6957   -3.9923   -0.8626 H       1  UNL1        0.1033
     49 H          -7.9322   -2.2159    1.7610 H       1  UNL1        0.0458
     50 H          -8.9486   -0.7312    1.4364 H       1  UNL1        0.0458
     51 H          -7.8838   -0.8863    2.9274 H       1  UNL1        0.0458
@<TRIPOS>BOND
     1     1     2    1
     2     2     3   ar
     3     3     4    2
     4     3     5   ar
     5     5     6   ar
     6     6     7    1
     7     7     8    1
     8     8     9    2
     9     8    10   am
    10    10    11    1
    11    11    12   ar
    12    12    13   ar
    13    13    14    1
    14    14    15   ar
    15    15    16   ar
    16    16    17    1
    17    16    18   ar
    18    18    19    1
    19    19    20    1
    20    20    21    1
    21    21    22    1
    22    21    23    1
    23    21    24    1
    24    18    25   ar
    25    25    26    1
    26    25    27   ar
    27    13    28   ar
    28    28    29   ar
    29     6    30   ar
    30    30    31   ar
    31    31    32   ar
    32    32    33   ar
    33    33    34    1
    34    33    35   ar
    35    35    36    2
    36    35     2   ar
    37    32     5   ar
    38    29    11   ar
    39    27    14   ar
    40     1    37    1
    41     1    38    1
    42     1    39    1
    43     7    40    1
    44     7    41    1
    45    10    42    1
    46    15    43    1
    47    20    44    1
    48    20    45    1
    49    27    46    1
    50    28    47    1
    51    30    48    1
    52    34    49    1
    53    34    50    1
    54    34    51    1
@<TRIPOS>MOLECULE
343246
 47 50 0 0 0
SMALL
GASTEIGER

@<TRIPOS>ATOM
      1 C          -5.6892    1.8110   -2.6097 C.3     1  UNL1        0.0196
      2 N          -5.2145    1.0761   -1.4657 N.ar    1  UNL1       -0.2635
      3 C          -3.9108    1.0389   -1.1101 C.ar    1  UNL1        0.2643
      4 O          -3.1034    1.6818   -1.8135 O.2     1  UNL1       -0.2668
      5 C          -3.4484    0.3256   -0.0143 C.ar    1  UNL1        0.0668
      6 C          -2.1190    0.2684    0.3620 C.ar    1  UNL1       -0.0243
      7 C          -1.1412    1.0412   -0.4606 C.3     1  UNL1        0.0503
      8 C           0.2439    0.9799    0.1266 C.2     1  UNL1        0.2230
      9 O           0.3966    1.4492    1.2846 O.2     1  UNL1       -0.2751
     10 N           1.3208    0.4202   -0.5905 N.am    1  UNL1       -0.2644
     11 C           2.6495    0.3480   -0.0296 C.ar    1  UNL1        0.1649
     12 N           3.7352    0.0148   -0.2641 N.ar    1  UNL1       -0.2245
     13 C           4.8136    0.0512    0.4950 C.ar    1  UNL1        0.0830
     14 C           6.1318   -0.4243    0.0040 C.ar    1  UNL1        0.0375
     15 C           7.2166   -0.4605    0.8608 C.ar    1  UNL1       -0.0314
     16 C           8.4829   -0.8879    0.4585 C.ar    1  UNL1        0.0418
     17 CL          9.7994   -0.9106    1.5904 Cl      1  UNL1       -0.0835
     18 C           8.6493   -1.2890   -0.8495 C.ar    1  UNL1       -0.0406
     19 C           7.5848   -1.2577   -1.7068 C.ar    1  UNL1       -0.0244
     20 C           6.3509   -0.8336   -1.2868 C.ar    1  UNL1        0.1326
     21 F           5.2760   -0.7963   -2.1336 F       1  UNL1       -0.2048
     22 C           4.6166    0.5484    1.7160 C.ar    1  UNL1        0.0050
     23 S           2.8856    0.9575    1.7581 S.2     1  UNL1       -0.0599
     24 C          -1.6810   -0.4580    1.4540 C.ar    1  UNL1       -0.0573
     25 C          -2.6230   -1.1489    2.1912 C.ar    1  UNL1       -0.0595
     26 C          -3.9548   -1.1046    1.8343 C.ar    1  UNL1       -0.0373
     27 C          -4.3800   -0.3803    0.7460 C.ar    1  UNL1        0.0586
     28 N          -5.6676   -0.3285    0.3749 N.ar    1  UNL1       -0.2962
     29 C          -6.6068   -1.0762    1.1943 C.3     1  UNL1        0.0167
     30 C          -6.0756    0.3808   -0.7026 C.ar    1  UNL1        0.3319
     31 O          -7.3056    0.4067   -1.0238 O.2     1  UNL1       -0.2463
     32 H          -5.6772    1.1983   -3.5380 H       1  UNL1        0.0458
     33 H          -5.1180    2.7368   -2.7873 H       1  UNL1        0.0458
     34 H          -6.7547    2.1329   -2.4798 H       1  UNL1        0.0458
     35 H          -1.0446    0.6641   -1.4942 H       1  UNL1        0.0407
     36 H          -1.3650    2.1531   -0.4200 H       1  UNL1        0.0407
     37 H           1.1231    0.0612   -1.5379 H       1  UNL1        0.1567
     38 H           7.1154   -0.1511    1.8982 H       1  UNL1        0.0639
     39 H           9.6029   -1.6241   -1.2041 H       1  UNL1        0.0633
     40 H           7.7114   -1.5681   -2.7261 H       1  UNL1        0.0647
     41 H           5.3683    0.6994    2.5899 H       1  UNL1        0.0716
     42 H          -0.6159   -0.5008    1.7330 H       1  UNL1        0.0621
     43 H          -2.2722   -1.7157    3.0462 H       1  UNL1        0.0618
     44 H          -4.6904   -1.6450    2.4147 H       1  UNL1        0.0638
     45 H          -6.3301   -2.1670    1.1390 H       1  UNL1        0.0457
     46 H          -7.6253   -0.9996    0.7538 H       1  UNL1        0.0457
     47 H          -6.6603   -0.7177    2.2225 H       1  UNL1        0.0457
@<TRIPOS>BOND
     1     1     2    1
     2     2     3   ar
     3     3     4    2
     4     3     5   ar
     5     5     6   ar
     6     6     7    1
     7     7     8    1
     8     8     9    2
     9     8    10   am
    10    10    11    1
    11    11    12   ar
    12    12    13   ar
    13    13    14    1
    14    14    15   ar
    15    15    16   ar
    16    16    17    1
    17    16    18   ar
    18    18    19   ar
    19    19    20   ar
    20    20    21    1
    21    13    22   ar
    22    22    23   ar
    23     6    24   ar
    24    24    25   ar
    25    25    26   ar
    26    26    27   ar
    27    27    28   ar
    28    28    29    1
    29    28    30   ar
    30    30    31    2
    31    30     2   ar
    32    27     5   ar
    33    23    11   ar
    34    20    14   ar
    35     1    32    1
    36     1    33    1
    37     1    34    1
    38     7    35    1
    39     7    36    1
    40    10    37    1
    41    15    38    1
    42    18    39    1
    43    19    40    1
    44    22    41    1
    45    24    42    1
    46    25    43    1
    47    26    44    1
    48    29    45    1
    49    29    46    1
    50    29    47    1
@<TRIPOS>MOLECULE
343255
 50 53 0 0 0
SMALL
GASTEIGER

@<TRIPOS>ATOM
      1 C          -6.0170   -3.3707    0.4771 C.3     1  UNL1        0.0196
      2 N          -5.7316   -1.9518    0.3650 N.ar    1  UNL1       -0.2635
      3 C          -4.4522   -1.5037    0.2191 C.ar    1  UNL1        0.2643
      4 O          -3.5700   -2.3641    0.1920 O.2     1  UNL1       -0.2668
      5 C          -4.1750   -0.1753    0.1132 C.ar    1  UNL1        0.0668
      6 C          -2.8846    0.3530   -0.0313 C.ar    1  UNL1       -0.0243
      7 C          -1.7600   -0.5841   -0.0476 C.3     1  UNL1        0.0503
      8 C          -0.4762   -0.0130   -0.5139 C.2     1  UNL1        0.2230
      9 O          -0.4197    0.9381   -1.3184 O.2     1  UNL1       -0.2751
     10 N           0.7765   -0.5204   -0.0540 N.am    1  UNL1       -0.2644
     11 C           2.0235   -0.0069   -0.4603 C.ar    1  UNL1        0.1649
     12 N           3.2262   -0.1278   -0.2123 N.ar    1  UNL1       -0.2246
     13 C           4.2187    0.4784   -0.7829 C.ar    1  UNL1        0.0804
     14 C           5.6458    0.3004   -0.4105 C.ar    1  UNL1        0.0064
     15 C           6.6443    0.9525   -1.0501 C.ar    1  UNL1       -0.0165
     16 C           7.9836    0.7957   -0.6784 C.ar    1  UNL1        0.1384
     17 F           8.9276    1.4626   -1.3435 F       1  UNL1       -0.2048
     18 C           8.3174   -0.0360    0.3613 C.ar    1  UNL1        0.1249
     19 C           9.7463   -0.2036    0.7580 C.3     1  UNL1        0.4227
     20 F          10.3070    1.0024    1.1368 F       1  UNL1       -0.1657
     21 F           9.7613   -1.0323    1.8596 F       1  UNL1       -0.1657
     22 F          10.5004   -0.7450   -0.2602 F       1  UNL1       -0.1657
     23 C           7.3158   -0.7037    1.0198 C.ar    1  UNL1        0.1384
     24 F           7.6258   -1.5186    2.0383 F       1  UNL1       -0.2048
     25 C           6.0042   -0.5333    0.6328 C.ar    1  UNL1       -0.0165
     26 C           3.8734    1.3749   -1.7997 C.ar    1  UNL1        0.0049
     27 S           2.1242    1.2595   -1.8389 S.2     1  UNL1       -0.0599
     28 C          -2.6834    1.7108   -0.1234 C.ar    1  UNL1       -0.0573
     29 C          -3.7748    2.5738   -0.0755 C.ar    1  UNL1       -0.0595
     30 C          -5.0516    2.0454    0.0688 C.ar    1  UNL1       -0.0373
     31 C          -5.2621    0.6963    0.1636 C.ar    1  UNL1        0.0586
     32 N          -6.5216    0.2649    0.3072 N.ar    1  UNL1       -0.2962
     33 C          -7.6012    1.2022    0.3703 C.3     1  UNL1        0.0167
     34 C          -6.7038   -1.0580    0.4024 C.ar    1  UNL1        0.3319
     35 O          -7.8828   -1.4809    0.5362 O.2     1  UNL1       -0.2463
     36 H          -6.8896   -3.4623    1.1572 H       1  UNL1        0.0458
     37 H          -6.2982   -3.7318   -0.5335 H       1  UNL1        0.0458
     38 H          -5.1278   -3.9009    0.8368 H       1  UNL1        0.0458
     39 H          -1.5672   -1.1149    0.8882 H       1  UNL1        0.0407
     40 H          -2.0038   -1.3243   -0.8908 H       1  UNL1        0.0407
     41 H           0.7639   -1.3122    0.6146 H       1  UNL1        0.1567
     42 H           6.4230    1.6291   -1.8898 H       1  UNL1        0.0653
     43 H           5.1638   -1.0499    1.1236 H       1  UNL1        0.0653
     44 H           4.5186    1.9763   -2.4008 H       1  UNL1        0.0716
     45 H          -1.7270    2.1904   -0.2088 H       1  UNL1        0.0621
     46 H          -3.6101    3.6359   -0.1544 H       1  UNL1        0.0618
     47 H          -5.8917    2.7154    0.1035 H       1  UNL1        0.0638
     48 H          -7.5282    1.7736    1.3403 H       1  UNL1        0.0457
     49 H          -7.7108    1.8604   -0.4849 H       1  UNL1        0.0457
     50 H          -8.5691    0.6334    0.4766 H       1  UNL1        0.0457
@<TRIPOS>BOND
     1     1     2    1
     2     2     3   ar
     3     3     4    2
     4     3     5   ar
     5     5     6   ar
     6     6     7    1
     7     7     8    1
     8     8     9    2
     9     8    10   am
    10    10    11    1
    11    11    12   ar
    12    12    13   ar
    13    13    14    1
    14    14    15   ar
    15    15    16   ar
    16    16    17    1
    17    16    18   ar
    18    18    19    1
    19    19    20    1
    20    19    21    1
    21    19    22    1
    22    18    23   ar
    23    23    24    1
    24    23    25   ar
    25    13    26   ar
    26    26    27   ar
    27     6    28   ar
    28    28    29   ar
    29    29    30   ar
    30    30    31   ar
    31    31    32   ar
    32    32    33    1
    33    32    34   ar
    34    34    35    2
    35    34     2   ar
    36    31     5   ar
    37    27    11   ar
    38    25    14   ar
    39     1    36    1
    40     1    37    1
    41     1    38    1
    42     7    39    1
    43     7    40    1
    44    10    41    1
    45    15    42    1
    46    25    43    1
    47    26    44    1
    48    28    45    1
    49    29    46    1
    50    30    47    1
    51    33    48    1
    52    33    49    1
    53    33    50    1
@<TRIPOS>MOLECULE
343278
 53 56 0 0 0
SMALL
GASTEIGER

@<TRIPOS>ATOM
      1 C           6.9159    2.8744   -0.9989 C.3     1  UNL1        0.0196
      2 N           6.6139    1.5260   -0.5099 N.ar    1  UNL1       -0.2633
      3 C           5.5217    1.2258    0.2135 C.ar    1  UNL1        0.2675
      4 O           4.7099    2.1430    0.4954 O.2     1  UNL1       -0.2667
      5 C           5.2732   -0.0569    0.6526 C.ar    1  UNL1        0.1062
      6 C           4.2658   -0.6364    1.3884 C.ar    1  UNL1        0.0137
      7 C           3.0743   -0.0517    1.9804 C.3     1  UNL1        0.0532
      8 C           1.9448    0.2417    1.0369 C.2     1  UNL1        0.2231
      9 O           1.8883    1.2234    0.2930 O.2     1  UNL1       -0.2751
     10 N           0.8444   -0.6932    0.9944 N.am    1  UNL1       -0.2644
     11 C          -0.3170   -0.5024    0.1440 C.ar    1  UNL1        0.1649
     12 N          -1.4740   -0.5246    0.1708 N.ar    1  UNL1       -0.2246
     13 C          -2.3631   -0.3035   -0.7530 C.ar    1  UNL1        0.0804
     14 C          -3.8136   -0.3828   -0.5761 C.ar    1  UNL1        0.0064
     15 C          -4.3596   -0.7141    0.6654 C.ar    1  UNL1       -0.0168
     16 C          -5.7204   -0.8283    0.8359 C.ar    1  UNL1        0.1299
     17 F          -6.2218   -1.1499    2.0591 F       1  UNL1       -0.2051
     18 C          -6.6152   -0.6250   -0.1963 C.ar    1  UNL1        0.0233
     19 C          -8.0424   -0.7907    0.0699 C.3     1  UNL1       -0.0141
     20 C          -8.6868    0.3203    0.8284 C.3     1  UNL1        0.0470
     21 C          -8.5885    1.6489    0.1066 C.3     1  UNL1        0.3905
     22 F          -9.2073    2.6044    0.8874 F       1  UNL1       -0.1707
     23 F          -7.3115    2.0177   -0.1971 F       1  UNL1       -0.1707
     24 F          -9.3521    1.5804   -1.0751 F       1  UNL1       -0.1707
     25 C          -6.0918   -0.2960   -1.4273 C.ar    1  UNL1        0.1299
     26 F          -6.9261   -0.0876   -2.4576 F       1  UNL1       -0.2051
     27 C          -4.7086   -0.1808   -1.5981 C.ar    1  UNL1       -0.0168
     28 C          -1.7946    0.0237   -2.0132 C.ar    1  UNL1        0.0049
     29 S          -0.0499   -0.0433   -1.6625 S.2     1  UNL1       -0.0599
     30 C           4.6652   -1.9948    1.4609 C.ar    1  UNL1        0.0988
     31 O           5.7909   -2.1535    0.8230 O.2     1  UNL1       -0.4460
     32 C           6.2093   -1.0343    0.3164 C.ar    1  UNL1        0.2171
     33 N           7.3108   -0.7387   -0.4113 N.ar    1  UNL1       -0.2667
     34 C           8.3156   -1.7217   -0.7682 C.3     1  UNL1        0.0194
     35 C           7.4923    0.5294   -0.8093 C.ar    1  UNL1        0.3341
     36 O           8.5169    0.8276   -1.4908 O.2     1  UNL1       -0.2462
     37 H           6.8686    2.8822   -2.0907 H       1  UNL1        0.0458
     38 H           7.9043    3.1942   -0.6066 H       1  UNL1        0.0458
     39 H           6.1468    3.5699   -0.6075 H       1  UNL1        0.0458
     40 H           3.3156    0.8418    2.6039 H       1  UNL1        0.0408
     41 H           2.6621   -0.7827    2.7364 H       1  UNL1        0.0408
     42 H           0.9081   -1.5428    1.6052 H       1  UNL1        0.1567
     43 H          -3.6360   -0.8684    1.4748 H       1  UNL1        0.0653
     44 H          -8.6063   -0.9103   -0.8863 H       1  UNL1        0.0318
     45 H          -8.2616   -1.7470    0.6332 H       1  UNL1        0.0318
     46 H          -9.7681    0.0869    0.9382 H       1  UNL1        0.0355
     47 H          -8.2907    0.4251    1.8656 H       1  UNL1        0.0355
     48 H          -4.3522    0.0810   -2.5969 H       1  UNL1        0.0653
     49 H          -2.2859    0.2480   -2.9282 H       1  UNL1        0.0716
     50 H           4.0442   -2.7109    1.9971 H       1  UNL1        0.1033
     51 H           9.3225   -1.2910   -0.7606 H       1  UNL1        0.0458
     52 H           8.2523   -2.6211   -0.0855 H       1  UNL1        0.0458
     53 H           8.0674   -2.1313   -1.7705 H       1  UNL1        0.0458
@<TRIPOS>BOND
     1     1     2    1
     2     2     3   ar
     3     3     4    2
     4     3     5   ar
     5     5     6   ar
     6     6     7    1
     7     7     8    1
     8     8     9    2
     9     8    10   am
    10    10    11    1
    11    11    12   ar
    12    12    13   ar
    13    13    14    1
    14    14    15   ar
    15    15    16   ar
    16    16    17    1
    17    16    18   ar
    18    18    19    1
    19    19    20    1
    20    20    21    1
    21    21    22    1
    22    21    23    1
    23    21    24    1
    24    18    25   ar
    25    25    26    1
    26    25    27   ar
    27    13    28   ar
    28    28    29   ar
    29     6    30   ar
    30    30    31   ar
    31    31    32   ar
    32    32    33   ar
    33    33    34    1
    34    33    35   ar
    35    35    36    2
    36    35     2   ar
    37    32     5   ar
    38    29    11   ar
    39    27    14   ar
    40     1    37    1
    41     1    38    1
    42     1    39    1
    43     7    40    1
    44     7    41    1
    45    10    42    1
    46    15    43    1
    47    19    44    1
    48    19    45    1
    49    20    46    1
    50    20    47    1
    51    27    48    1
    52    28    49    1
    53    30    50    1
    54    34    51    1
    55    34    52    1
    56    34    53    1
@<TRIPOS>MOLECULE
343282
 51 54 0 0 0
SMALL
GASTEIGER

@<TRIPOS>ATOM
      1 C          -6.3997   -2.2614   -1.8729 C.3     1  UNL1        0.0196
      2 N          -6.1615   -1.2103   -0.9155 N.ar    1  UNL1       -0.2633
      3 C          -5.1061   -0.3962   -1.0679 C.ar    1  UNL1        0.2675
      4 O          -4.3059   -0.5158   -2.0347 O.2     1  UNL1       -0.2667
      5 C          -4.8595    0.6223   -0.1528 C.ar    1  UNL1        0.1062
      6 C          -3.9023    1.5893   -0.0283 C.ar    1  UNL1        0.0137
      7 C          -2.7326    1.8395   -0.8747 C.3     1  UNL1        0.0532
      8 C          -1.6033    0.9294   -0.5438 C.2     1  UNL1        0.2231
      9 O          -1.5613   -0.2818   -0.8791 O.2     1  UNL1       -0.2751
     10 N          -0.5081    1.4543    0.1930 N.am    1  UNL1       -0.2644
     11 C           0.6552    0.6207    0.5486 C.ar    1  UNL1        0.1649
     12 N           1.7284    0.3660    0.2279 N.ar    1  UNL1       -0.2246
     13 C           2.6130   -0.4668    0.7328 C.ar    1  UNL1        0.0804
     14 C           4.0030   -0.6133    0.1780 C.ar    1  UNL1        0.0053
     15 C           4.8753   -1.4884    0.7527 C.ar    1  UNL1       -0.0135
     16 C           6.1629   -1.5842    0.2853 C.ar    1  UNL1        0.1669
     17 F           7.0600   -2.4480    0.8326 F       1  UNL1       -0.2016
     18 C           6.6371   -0.8022   -0.7849 C.ar    1  UNL1        0.1742
     19 O           7.9459   -0.9415   -1.2072 O.3     1  UNL1       -0.4787
     20 C           8.9576   -0.2692   -0.4998 C.3     1  UNL1        0.1844
     21 C           8.8739    1.2180   -0.4472 C.3     1  UNL1        0.4236
     22 F           8.9564    1.7821   -1.6716 F       1  UNL1       -0.1671
     23 F           7.6497    1.5493    0.1221 F       1  UNL1       -0.1671
     24 F           9.8584    1.6618    0.4238 F       1  UNL1       -0.1671
     25 C           5.7446    0.0603   -1.3453 C.ar    1  UNL1        0.0860
     26 CL          6.1545    1.0428   -2.7439 Cl      1  UNL1       -0.0796
     27 C           4.4308    0.1542   -0.8625 C.ar    1  UNL1       -0.0304
     28 C           2.1561   -1.1384    1.8280 C.ar    1  UNL1        0.0049
     29 S           0.4600   -0.5156    2.0619 S.2     1  UNL1       -0.0599
     30 C          -4.2555    2.2953    1.1381 C.ar    1  UNL1        0.0988
     31 O          -5.3185    1.7638    1.6210 O.2     1  UNL1       -0.4460
     32 C          -5.7576    0.7501    0.9142 C.ar    1  UNL1        0.2171
     33 N          -6.8037   -0.0872    1.0300 N.ar    1  UNL1       -0.2667
     34 C          -7.7214    0.0568    2.1392 C.3     1  UNL1        0.0194
     35 C          -6.9846   -1.0523    0.1110 C.ar    1  UNL1        0.3341
     36 O          -7.9879   -1.8316    0.2507 O.2     1  UNL1       -0.2462
     37 H          -5.8746   -3.1791   -1.5147 H       1  UNL1        0.0458
     38 H          -5.9645   -2.0583   -2.8758 H       1  UNL1        0.0458
     39 H          -7.4841   -2.4919   -1.9698 H       1  UNL1        0.0458
     40 H          -2.4045    2.8760   -0.8198 H       1  UNL1        0.0408
     41 H          -2.9562    1.6421   -1.9655 H       1  UNL1        0.0408
     42 H          -0.5212    2.4476    0.4906 H       1  UNL1        0.1567
     43 H           4.5448   -2.1028    1.5704 H       1  UNL1        0.0654
     44 H           8.9512   -0.6079    0.5890 H       1  UNL1        0.0788
     45 H           9.9689   -0.6198   -0.8466 H       1  UNL1        0.0788
     46 H           3.7178    0.8474   -1.3101 H       1  UNL1        0.0640
     47 H           2.6471   -1.9315    2.5135 H       1  UNL1        0.0716
     48 H          -3.6954    3.1292    1.5164 H       1  UNL1        0.1033
     49 H          -7.5364   -0.7919    2.8240 H       1  UNL1        0.0458
     50 H          -8.7381   -0.0587    1.7115 H       1  UNL1        0.0458
     51 H          -7.6080    1.0477    2.6281 H       1  UNL1        0.0458
@<TRIPOS>BOND
     1     1     2    1
     2     2     3   ar
     3     3     4    2
     4     3     5   ar
     5     5     6   ar
     6     6     7    1
     7     7     8    1
     8     8     9    2
     9     8    10   am
    10    10    11    1
    11    11    12   ar
    12    12    13   ar
    13    13    14    1
    14    14    15   ar
    15    15    16   ar
    16    16    17    1
    17    16    18   ar
    18    18    19    1
    19    19    20    1
    20    20    21    1
    21    21    22    1
    22    21    23    1
    23    21    24    1
    24    18    25   ar
    25    25    26    1
    26    25    27   ar
    27    13    28   ar
    28    28    29   ar
    29     6    30   ar
    30    30    31   ar
    31    31    32   ar
    32    32    33   ar
    33    33    34    1
    34    33    35   ar
    35    35    36    2
    36    35     2   ar
    37    32     5   ar
    38    29    11   ar
    39    27    14   ar
    40     1    37    1
    41     1    38    1
    42     1    39    1
    43     7    40    1
    44     7    41    1
    45    10    42    1
    46    15    43    1
    47    20    44    1
    48    20    45    1
    49    27    46    1
    50    28    47    1
    51    30    48    1
    52    34    49    1
    53    34    50    1
    54    34    51    1
@<TRIPOS>MOLECULE
343254
 54 57 0 0 0
SMALL
GASTEIGER

@<TRIPOS>ATOM
      1 C          -4.4166   -2.9597   -1.3553 C.3     1  UNL1        0.0196
      2 N          -4.7563   -1.6283   -0.8927 N.ar    1  UNL1       -0.2635
      3 C          -3.9415   -0.5977   -1.2450 C.ar    1  UNL1        0.2643
      4 O          -2.9378   -0.8343   -1.9490 O.2     1  UNL1       -0.2668
      5 C          -4.2171    0.6681   -0.8367 C.ar    1  UNL1        0.0668
      6 C          -3.3749    1.7049   -1.2116 C.ar    1  UNL1       -0.0243
      7 C          -2.1686    1.5200   -2.0223 C.3     1  UNL1        0.0503
      8 C          -0.9975    0.9992   -1.3078 C.2     1  UNL1        0.2230
      9 O           0.0863    0.9286   -1.9407 O.2     1  UNL1       -0.2751
     10 N          -0.9787    0.5718    0.0278 N.am    1  UNL1       -0.2644
     11 C           0.2936    0.0783    0.6124 C.ar    1  UNL1        0.1649
     12 N           1.3941   -0.1019    0.4031 N.ar    1  UNL1       -0.2246
     13 C           2.3521   -0.5856    1.1694 C.ar    1  UNL1        0.0804
     14 C           3.7399   -0.7369    0.7255 C.ar    1  UNL1        0.0066
     15 C           4.6640   -1.2496    1.5923 C.ar    1  UNL1       -0.0134
     16 C           5.9829   -1.3924    1.2067 C.ar    1  UNL1        0.1683
     17 F           6.8447   -1.9333    2.1335 F       1  UNL1       -0.2015
     18 C           6.4125   -1.0320   -0.0380 C.ar    1  UNL1        0.1909
     19 O           7.7150   -1.1537   -0.4588 O.3     1  UNL1       -0.4773
     20 C           8.6075   -0.0798   -0.3251 C.3     1  UNL1        0.1844
     21 C           8.8611    0.3841    1.0641 C.3     1  UNL1        0.4236
     22 F           9.4078   -0.5904    1.8383 F       1  UNL1       -0.1671
     23 F           7.7389    0.9596    1.6377 F       1  UNL1       -0.1671
     24 F           9.8015    1.4140    0.9863 F       1  UNL1       -0.1671
     25 C           5.4823   -0.5104   -0.9283 C.ar    1  UNL1        0.1683
     26 F           5.9126   -0.1492   -2.1791 F       1  UNL1       -0.2015
     27 C           4.1888   -0.3799   -0.5247 C.ar    1  UNL1       -0.0134
     28 C           1.9351   -0.9262    2.4320 C.ar    1  UNL1        0.0049
     29 S           0.1777   -0.5136    2.4045 S.2     1  UNL1       -0.0599
     30 C          -3.7569    2.9685   -0.7401 C.ar    1  UNL1       -0.0573
     31 C          -4.8585    3.1969    0.0262 C.ar    1  UNL1       -0.0595
     32 C          -5.6441    2.1399    0.3605 C.ar    1  UNL1       -0.0373
     33 C          -5.3416    0.8688   -0.0601 C.ar    1  UNL1        0.0586
     34 N          -6.1431   -0.1676    0.2824 N.ar    1  UNL1       -0.2962
     35 C          -7.3108    0.1160    1.1018 C.3     1  UNL1        0.0167
     36 C          -5.8321   -1.3857   -0.1404 C.ar    1  UNL1        0.3319
     37 O          -6.5954   -2.3382    0.1920 O.2     1  UNL1       -0.2463
     38 H          -3.6430   -3.3575   -0.6711 H       1  UNL1        0.0458
     39 H          -5.3188   -3.6163   -1.2986 H       1  UNL1        0.0458
     40 H          -4.0110   -2.9310   -2.3695 H       1  UNL1        0.0458
     41 H          -1.8347    2.5734   -2.3148 H       1  UNL1        0.0407
     42 H          -2.3404    1.0829   -3.0309 H       1  UNL1        0.0407
     43 H          -1.8433    0.6025    0.5943 H       1  UNL1        0.1567
     44 H           4.3764   -1.5552    2.6026 H       1  UNL1        0.0654
     45 H           9.5783   -0.4286   -0.7492 H       1  UNL1        0.0788
     46 H           8.3114    0.7773   -0.9846 H       1  UNL1        0.0788
     47 H           3.4693    0.0344   -1.2423 H       1  UNL1        0.0654
     48 H           2.4681   -1.3411    3.2797 H       1  UNL1        0.0716
     49 H          -3.0979    3.7983   -1.0299 H       1  UNL1        0.0621
     50 H          -5.0752    4.1997    0.3442 H       1  UNL1        0.0618
     51 H          -6.5420    2.2613    0.9747 H       1  UNL1        0.0638
     52 H          -6.9679    0.5765    2.0411 H       1  UNL1        0.0457
     53 H          -7.9456    0.8477    0.5554 H       1  UNL1        0.0457
     54 H          -7.9104   -0.7965    1.2601 H       1  UNL1        0.0457
@<TRIPOS>BOND
     1     1     2    1
     2     2     3   ar
     3     3     4    2
     4     3     5   ar
     5     5     6   ar
     6     6     7    1
     7     7     8    1
     8     8     9    2
     9     8    10   am
    10    10    11    1
    11    11    12   ar
    12    12    13   ar
    13    13    14    1
    14    14    15   ar
    15    15    16   ar
    16    16    17    1
    17    16    18   ar
    18    18    19    1
    19    19    20    1
    20    20    21    1
    21    21    22    1
    22    21    23    1
    23    21    24    1
    24    18    25   ar
    25    25    26    1
    26    25    27   ar
    27    13    28   ar
    28    28    29   ar
    29     6    30   ar
    30    30    31   ar
    31    31    32   ar
    32    32    33   ar
    33    33    34   ar
    34    34    35    1
    35    34    36   ar
    36    36    37    2
    37    36     2   ar
    38    33     5   ar
    39    29    11   ar
    40    27    14   ar
    41     1    38    1
    42     1    39    1
    43     1    40    1
    44     7    41    1
    45     7    42    1
    46    10    43    1
    47    15    44    1
    48    20    45    1
    49    20    46    1
    50    27    47    1
    51    28    48    1
    52    30    49    1
    53    31    50    1
    54    32    51    1
    55    35    52    1
    56    35    53    1
    57    35    54    1
@<TRIPOS>MOLECULE
343308
 53 56 0 0 0
SMALL
GASTEIGER

@<TRIPOS>ATOM
      1 C           4.8735    2.1739   -1.9577 C.3     1  UNL1        0.0196
      2 N           5.2667    1.0345   -1.1510 N.ar    1  UNL1       -0.2634
      3 C           4.5153    0.6505   -0.0802 C.ar    1  UNL1        0.2659
      4 O           3.4937    1.3244    0.1557 O.2     1  UNL1       -0.2668
      5 C           4.8199   -0.4121    0.7284 C.ar    1  UNL1        0.0857
      6 C           4.0562   -0.7911    1.8067 C.ar    1  UNL1       -0.0213
      7 C           2.8331   -0.0637    2.1672 C.3     1  UNL1        0.0504
      8 C           1.6934   -0.3876    1.2712 C.2     1  UNL1        0.2230
      9 O           1.8480   -1.2302    0.3525 O.2     1  UNL1       -0.2751
     10 N           0.4192    0.2206    1.4083 N.am    1  UNL1       -0.2644
     11 C          -0.6467   -0.0947    0.5566 C.ar    1  UNL1        0.1649
     12 N          -1.8419    0.1912    0.3509 N.ar    1  UNL1       -0.2246
     13 C          -2.6533   -0.2450   -0.5264 C.ar    1  UNL1        0.0804
     14 C          -4.0760    0.1861   -0.6641 C.ar    1  UNL1        0.0066
     15 C          -4.8820   -0.3303   -1.6328 C.ar    1  UNL1       -0.0134
     16 C          -6.1981    0.0787   -1.7473 C.ar    1  UNL1        0.1683
     17 F          -6.9635   -0.4588   -2.7223 F       1  UNL1       -0.2015
     18 C          -6.7537    1.0330   -0.8800 C.ar    1  UNL1        0.1909
     19 O          -8.0699    1.3988   -1.0471 O.3     1  UNL1       -0.4773
     20 C          -9.2032    0.8122   -0.5135 C.3     1  UNL1        0.1844
     21 C          -9.2462    0.8291    0.9646 C.3     1  UNL1        0.4236
     22 F          -9.2383    2.0995    1.4679 F       1  UNL1       -0.1671
     23 F          -8.1569    0.0954    1.4490 F       1  UNL1       -0.1671
     24 F         -10.4223    0.2232    1.3981 F       1  UNL1       -0.1671
     25 C          -5.9274    1.5380    0.0835 C.ar    1  UNL1        0.1683
     26 F          -6.4031    2.4727    0.9393 F       1  UNL1       -0.2015
     27 C          -4.5891    1.1146    0.1917 C.ar    1  UNL1       -0.0134
     28 C          -2.1932   -1.2148   -1.4533 C.ar    1  UNL1        0.0049
     29 S          -0.4421   -1.3481   -0.8178 S.2     1  UNL1       -0.0599
     30 C           4.4232   -1.8845    2.5917 C.ar    1  UNL1       -0.0391
     31 C           5.5685   -2.5549    2.2403 C.ar    1  UNL1        0.0302
     32 N           6.3024   -2.1710    1.1841 N.ar    1  UNL1       -0.2370
     33 C           5.9771   -1.1315    0.4164 C.ar    1  UNL1        0.1497
     34 N           6.7092   -0.7449   -0.6396 N.ar    1  UNL1       -0.2808
     35 C           7.8978   -1.5003   -0.9435 C.3     1  UNL1        0.0181
     36 C           6.3678    0.3069   -1.4040 C.ar    1  UNL1        0.3330
     37 O           7.1009    0.5991   -2.3646 O.2     1  UNL1       -0.2462
     38 H           3.7691    2.1816   -2.1658 H       1  UNL1        0.0458
     39 H           5.1630    3.1342   -1.5251 H       1  UNL1        0.0458
     40 H           5.3405    2.0940   -2.9797 H       1  UNL1        0.0458
     41 H           2.9234    1.0363    2.2106 H       1  UNL1        0.0407
     42 H           2.4548   -0.4296    3.1893 H       1  UNL1        0.0407
     43 H           0.2689    0.9304    2.1724 H       1  UNL1        0.1567
     44 H          -4.5301   -1.0834   -2.3563 H       1  UNL1        0.0654
     45 H          -9.3431   -0.2336   -0.8813 H       1  UNL1        0.0788
     46 H         -10.0893    1.4129   -0.8846 H       1  UNL1        0.0788
     47 H          -4.0045    1.5747    0.9946 H       1  UNL1        0.0654
     48 H          -2.5793   -1.7071   -2.2039 H       1  UNL1        0.0716
     49 H           3.8241   -2.1921    3.4480 H       1  UNL1        0.0636
     50 H           5.8567   -3.4168    2.8601 H       1  UNL1        0.0830
     51 H           8.6702   -0.8423   -1.3720 H       1  UNL1        0.0458
     52 H           7.7144   -2.3098   -1.6664 H       1  UNL1        0.0458
     53 H           8.3022   -1.9688   -0.0190 H       1  UNL1        0.0458
@<TRIPOS>BOND
     1     1     2    1
     2     2     3   ar
     3     3     4    2
     4     3     5   ar
     5     5     6   ar
     6     6     7    1
     7     7     8    1
     8     8     9    2
     9     8    10   am
    10    10    11    1
    11    11    12   ar
    12    12    13   ar
    13    13    14    1
    14    14    15   ar
    15    15    16   ar
    16    16    17    1
    17    16    18   ar
    18    18    19    1
    19    19    20    1
    20    20    21    1
    21    21    22    1
    22    21    23    1
    23    21    24    1
    24    18    25   ar
    25    25    26    1
    26    25    27   ar
    27    13    28   ar
    28    28    29   ar
    29     6    30   ar
    30    30    31   ar
    31    31    32   ar
    32    32    33   ar
    33    33    34   ar
    34    34    35    1
    35    34    36   ar
    36    36    37    2
    37    36     2   ar
    38    33     5   ar
    39    29    11   ar
    40    27    14   ar
    41     1    38    1
    42     1    39    1
    43     1    40    1
    44     7    41    1
    45     7    42    1
    46    10    43    1
    47    15    44    1
    48    20    45    1
    49    20    46    1
    50    27    47    1
    51    28    48    1
    52    30    49    1
    53    31    50    1
    54    35    51    1
    55    35    52    1
    56    35    53    1
@<TRIPOS>MOLECULE
343277
 47 50 0 0 0
SMALL
GASTEIGER

@<TRIPOS>ATOM
      1 C          -5.3544    0.9159    2.7301 C.3     1  UNL1        0.0196
      2 N          -5.0154    0.5930    1.3733 N.ar    1  UNL1       -0.2633
      3 C          -4.1936   -0.4215    1.0080 C.ar    1  UNL1        0.2675
      4 O          -3.6546   -1.1161    1.9091 O.2     1  UNL1       -0.2667
      5 C          -3.9090   -0.7457   -0.3062 C.ar    1  UNL1        0.1062
      6 C          -3.1495   -1.6998   -0.9366 C.ar    1  UNL1        0.0137
      7 C          -2.2968   -2.7001   -0.3347 C.3     1  UNL1        0.0532
      8 C          -0.8577   -2.4653   -0.2609 C.2     1  UNL1        0.2231
      9 O          -0.0966   -3.5315   -0.4186 O.2     1  UNL1       -0.2751
     10 N          -0.1296   -1.2882   -0.0535 N.am    1  UNL1       -0.2644
     11 C           1.3154   -1.2930   -0.0378 C.ar    1  UNL1        0.1649
     12 N           2.2148   -0.4794    0.0607 N.ar    1  UNL1       -0.2246
     13 C           3.4834   -0.6980    0.0402 C.ar    1  UNL1        0.0803
     14 C           4.5357    0.3419    0.1572 C.ar    1  UNL1        0.0042
     15 C           4.1936    1.6608    0.2871 C.ar    1  UNL1       -0.0172
     16 C           5.1695    2.6541    0.4145 C.ar    1  UNL1        0.1246
     17 F           4.8512    3.9593    0.5362 F       1  UNL1       -0.2055
     18 C           6.5119    2.3218    0.4125 C.ar    1  UNL1       -0.0148
     19 C           6.8478    0.9967    0.2806 C.ar    1  UNL1        0.0581
     20 C           8.2711    0.6069    0.2981 C.3     1  UNL1        0.4175
     21 F           9.0629    1.7447    0.5285 F       1  UNL1       -0.1659
     22 F           8.7039   -0.0061   -0.8439 F       1  UNL1       -0.1659
     23 F           8.5592   -0.2265    1.3953 F       1  UNL1       -0.1659
     24 C           5.8673    0.0127    0.1530 C.ar    1  UNL1       -0.0407
     25 C           3.8522   -2.0767   -0.1178 C.ar    1  UNL1        0.0049
     26 S           2.2608   -2.8414   -0.2124 S.2     1  UNL1       -0.0599
     27 C          -3.3014   -1.4933   -2.3045 C.ar    1  UNL1        0.0988
     28 O          -4.1047   -0.4762   -2.4470 O.2     1  UNL1       -0.4460
     29 C          -4.5025    0.0112   -1.3049 C.ar    1  UNL1        0.2171
     30 N          -5.3250    1.0276   -0.9188 N.ar    1  UNL1       -0.2667
     31 C          -5.9237    1.8110   -1.9817 C.3     1  UNL1        0.0194
     32 C          -5.5729    1.3109    0.3520 C.ar    1  UNL1        0.3341
     33 O          -6.3358    2.2645    0.6822 O.2     1  UNL1       -0.2462
     34 H          -5.2634    0.0554    3.4135 H       1  UNL1        0.0458
     35 H          -4.8338    1.8090    3.0849 H       1  UNL1        0.0458
     36 H          -6.4551    1.1741    2.7527 H       1  UNL1        0.0458
     37 H          -2.6661   -3.0120    0.6973 H       1  UNL1        0.0408
     38 H          -2.4100   -3.6954   -0.8981 H       1  UNL1        0.0408
     39 H          -0.6064   -0.3844    0.0844 H       1  UNL1        0.1567
     40 H           3.1602    1.9439    0.2853 H       1  UNL1        0.0653
     41 H           7.2499    3.1110    0.5201 H       1  UNL1        0.0652
     42 H           6.1609   -1.0401    0.0499 H       1  UNL1        0.0630
     43 H           4.8657   -2.5179   -0.1791 H       1  UNL1        0.0716
     44 H          -2.8315   -2.0813   -3.1026 H       1  UNL1        0.1033
     45 H          -5.2852    2.6198   -2.3605 H       1  UNL1        0.0458
     46 H          -6.1575    1.1004   -2.8275 H       1  UNL1        0.0458
     47 H          -6.9053    2.2433   -1.6601 H       1  UNL1        0.0458
@<TRIPOS>BOND
     1     1     2    1
     2     2     3   ar
     3     3     4    2
     4     3     5   ar
     5     5     6   ar
     6     6     7    1
     7     7     8    1
     8     8     9    2
     9     8    10   am
    10    10    11    1
    11    11    12   ar
    12    12    13   ar
    13    13    14    1
    14    14    15   ar
    15    15    16   ar
    16    16    17    1
    17    16    18   ar
    18    18    19   ar
    19    19    20    1
    20    20    21    1
    21    20    22    1
    22    20    23    1
    23    19    24   ar
    24    13    25   ar
    25    25    26   ar
    26     6    27   ar
    27    27    28   ar
    28    28    29   ar
    29    29    30   ar
    30    30    31    1
    31    30    32   ar
    32    32    33    2
    33    32     2   ar
    34    29     5   ar
    35    26    11   ar
    36    24    14   ar
    37     1    34    1
    38     1    35    1
    39     1    36    1
    40     7    37    1
    41     7    38    1
    42    10    39    1
    43    15    40    1
    44    18    41    1
    45    24    42    1
    46    25    43    1
    47    27    44    1
    48    31    45    1
    49    31    46    1
    50    31    47    1
@<TRIPOS>MOLECULE
343305
 46 49 0 0 0
SMALL
GASTEIGER

@<TRIPOS>ATOM
      1 C          -4.2402    0.9724    2.4908 C.3     1  UNL1        0.0196
      2 N          -4.2676    0.5707    1.0822 N.ar    1  UNL1       -0.2634
      3 C          -3.7187   -0.5915    0.7654 C.ar    1  UNL1        0.2664
      4 O          -3.2119   -1.2839    1.6835 O.2     1  UNL1       -0.2668
      5 C          -3.7111   -1.0316   -0.5891 C.ar    1  UNL1        0.0937
      6 C          -3.1883   -2.1719   -1.0221 C.ar    1  UNL1        0.0735
      7 C          -2.5104   -3.2603   -0.2435 C.3     1  UNL1        0.0681
      8 C          -1.1482   -2.9179    0.1748 C.2     1  UNL1        0.2245
      9 O          -0.6484   -3.6042    1.1140 O.2     1  UNL1       -0.2750
     10 N          -0.3604   -1.8985   -0.3766 N.am    1  UNL1       -0.2644
     11 C           0.9744   -1.6206    0.0853 C.ar    1  UNL1        0.1649
     12 N           1.8321   -0.8055   -0.1687 N.ar    1  UNL1       -0.2246
     13 C           3.0062   -0.7068    0.3508 C.ar    1  UNL1        0.0803
     14 C           4.0190    0.3312    0.0040 C.ar    1  UNL1        0.0042
     15 C           3.7158    1.2666   -0.9272 C.ar    1  UNL1       -0.0172
     16 C           4.6260    2.2560   -1.2789 C.ar    1  UNL1        0.1246
     17 F           4.3274    3.2011   -2.2138 F       1  UNL1       -0.2055
     18 C           5.8595    2.3103   -0.6886 C.ar    1  UNL1       -0.0148
     19 C           6.1781    1.3638    0.2601 C.ar    1  UNL1        0.0581
     20 C           7.5028    1.4075    0.9099 C.3     1  UNL1        0.4175
     21 F           8.5253    1.0353    0.0640 F       1  UNL1       -0.1659
     22 F           7.7884    2.6866    1.3878 F       1  UNL1       -0.1659
     23 F           7.5320    0.5515    2.0008 F       1  UNL1       -0.1659
     24 C           5.2470    0.3697    0.6047 C.ar    1  UNL1       -0.0407
     25 C           3.3131   -1.6909    1.3469 C.ar    1  UNL1        0.0049
     26 S           1.7547   -2.6229    1.3411 S.2     1  UNL1       -0.0599
     27 N          -3.3010   -2.3891   -2.4399 N.ar    1  UNL1       -0.2121
     28 S          -4.1763   -0.8823   -3.0212 S.2     1  UNL1        0.0304
     29 C          -4.2897   -0.1817   -1.4479 C.ar    1  UNL1        0.1164
     30 N          -4.8567    1.0351   -1.0679 N.ar    1  UNL1       -0.2892
     31 C          -5.4481    1.8530   -2.1063 C.3     1  UNL1        0.0172
     32 C          -4.8355    1.3948    0.2068 C.ar    1  UNL1        0.3323
     33 O          -5.3316    2.4717    0.5791 O.2     1  UNL1       -0.2462
     34 H          -4.8076    0.2142    3.0489 H       1  UNL1        0.0458
     35 H          -4.7007    1.9490    2.6305 H       1  UNL1        0.0458
     36 H          -3.1803    1.0628    2.7959 H       1  UNL1        0.0458
     37 H          -3.1313   -3.3868    0.6746 H       1  UNL1        0.0423
     38 H          -2.5107   -4.2138   -0.7568 H       1  UNL1        0.0423
     39 H          -0.7161   -1.3165   -1.1313 H       1  UNL1        0.1567
     40 H           2.7445    1.2358   -1.4027 H       1  UNL1        0.0653
     41 H           6.6016    3.0799   -0.9444 H       1  UNL1        0.0652
     42 H           5.4955   -0.3653    1.3405 H       1  UNL1        0.0630
     43 H           4.1888   -1.8547    1.9352 H       1  UNL1        0.0716
     44 H          -5.5607    2.8668   -1.6915 H       1  UNL1        0.0457
     45 H          -4.8822    1.8186   -3.0505 H       1  UNL1        0.0457
     46 H          -6.4984    1.4926   -2.3075 H       1  UNL1        0.0457
@<TRIPOS>BOND
     1     1     2    1
     2     2     3   ar
     3     3     4    2
     4     3     5   ar
     5     5     6   ar
     6     6     7    1
     7     7     8    1
     8     8     9    2
     9     8    10   am
    10    10    11    1
    11    11    12   ar
    12    12    13   ar
    13    13    14    1
    14    14    15   ar
    15    15    16   ar
    16    16    17    1
    17    16    18   ar
    18    18    19   ar
    19    19    20    1
    20    20    21    1
    21    20    22    1
    22    20    23    1
    23    19    24   ar
    24    13    25   ar
    25    25    26   ar
    26     6    27   ar
    27    27    28   ar
    28    28    29   ar
    29    29    30   ar
    30    30    31    1
    31    30    32   ar
    32    32    33    2
    33    32     2   ar
    34    29     5   ar
    35    26    11   ar
    36    24    14   ar
    37     1    34    1
    38     1    35    1
    39     1    36    1
    40     7    37    1
    41     7    38    1
    42    10    39    1
    43    15    40    1
    44    18    41    1
    45    24    42    1
    46    25    43    1
    47    31    44    1
    48    31    45    1
    49    31    46    1
@<TRIPOS>MOLECULE
343225
 47 50 0 0 0
SMALL
GASTEIGER

@<TRIPOS>ATOM
      1 C           5.8533   -0.8877    2.7428 C.3     1  UNL1        0.0196
      2 N           5.2250   -0.4843    1.5047 N.ar    1  UNL1       -0.2635
      3 C           3.9550   -0.0199    1.4412 C.ar    1  UNL1        0.2643
      4 O           3.3201    0.0188    2.4958 O.2     1  UNL1       -0.2668
      5 C           3.3608    0.4061    0.2611 C.ar    1  UNL1        0.0668
      6 C           2.1269    0.9272    0.1889 C.ar    1  UNL1       -0.0243
      7 C           1.1224    0.8836    1.2804 C.3     1  UNL1        0.0503
      8 C          -0.0140   -0.0049    0.6966 C.2     1  UNL1        0.2230
      9 O           0.1676   -1.1844    0.4594 O.2     1  UNL1       -0.2751
     10 N          -1.2510    0.6174    0.4422 N.am    1  UNL1       -0.2644
     11 C          -2.4044    0.0147   -0.1370 C.ar    1  UNL1        0.1649
     12 N          -3.6384    0.0499    0.1465 N.ar    1  UNL1       -0.2246
     13 C          -4.5896   -0.4842   -0.5417 C.ar    1  UNL1        0.0802
     14 C          -6.0122   -0.3640   -0.1364 C.ar    1  UNL1        0.0010
     15 C          -7.0120   -0.9018   -0.8871 C.ar    1  UNL1       -0.0515
     16 C          -8.3387   -0.7879   -0.5450 C.ar    1  UNL1       -0.0471
     17 C          -8.7057   -0.0959    0.6218 C.ar    1  UNL1        0.0179
     18 BR        -10.5488    0.0821    1.1067 Br      1  UNL1       -0.0503
     19 C          -7.7004    0.4305    1.3585 C.ar    1  UNL1       -0.0471
     20 C          -6.3671    0.3310    1.0368 C.ar    1  UNL1       -0.0515
     21 C          -4.2359   -1.1567   -1.6823 C.ar    1  UNL1        0.0049
     22 S          -2.4100   -0.9638   -1.6979 S.2     1  UNL1       -0.0599
     23 C           1.6417    1.4059   -1.0467 C.ar    1  UNL1       -0.0573
     24 C           2.4426    1.3180   -2.1378 C.ar    1  UNL1       -0.0595
     25 C           3.7198    0.7783   -2.0910 C.ar    1  UNL1       -0.0373
     26 C           4.1816    0.3177   -0.8694 C.ar    1  UNL1        0.0586
     27 N           5.4417   -0.1480   -0.8032 N.ar    1  UNL1       -0.2962
     28 C           6.2734   -0.2421   -2.0109 C.3     1  UNL1        0.0167
     29 C           5.9570   -0.5467    0.3854 C.ar    1  UNL1        0.3319
     30 O           7.1410   -0.9888    0.4757 O.2     1  UNL1       -0.2463
     31 H           5.8478   -1.9874    2.8677 H       1  UNL1        0.0458
     32 H           6.9021   -0.5051    2.7301 H       1  UNL1        0.0458
     33 H           5.2936   -0.4282    3.5905 H       1  UNL1        0.0458
     34 H           1.3777    0.3028    2.1632 H       1  UNL1        0.0407
     35 H           0.6483    1.8481    1.4810 H       1  UNL1        0.0407
     36 H          -1.3253    1.6449    0.7269 H       1  UNL1        0.1567
     37 H          -6.7258   -1.4425   -1.8033 H       1  UNL1        0.0624
     38 H          -9.0713   -1.2198   -1.1777 H       1  UNL1        0.0629
     39 H          -7.9152    0.9840    2.2994 H       1  UNL1        0.0629
     40 H          -5.5718    0.7412    1.6014 H       1  UNL1        0.0624
     41 H          -4.7691   -1.6697   -2.4182 H       1  UNL1        0.0716
     42 H           0.6356    1.8395   -1.1022 H       1  UNL1        0.0621
     43 H           2.0882    1.6794   -3.1203 H       1  UNL1        0.0618
     44 H           4.3045    0.7204   -2.9827 H       1  UNL1        0.0638
     45 H           6.2897    0.7209   -2.5761 H       1  UNL1        0.0457
     46 H           5.9611   -1.0720   -2.6433 H       1  UNL1        0.0457
     47 H           7.3279   -0.4764   -1.6951 H       1  UNL1        0.0457
@<TRIPOS>BOND
     1     1     2    1
     2     2     3   ar
     3     3     4    2
     4     3     5   ar
     5     5     6   ar
     6     6     7    1
     7     7     8    1
     8     8     9    2
     9     8    10   am
    10    10    11    1
    11    11    12   ar
    12    12    13   ar
    13    13    14    1
    14    14    15   ar
    15    15    16   ar
    16    16    17   ar
    17    17    18    1
    18    17    19   ar
    19    19    20   ar
    20    13    21   ar
    21    21    22   ar
    22     6    23   ar
    23    23    24   ar
    24    24    25   ar
    25    25    26   ar
    26    26    27   ar
    27    27    28    1
    28    27    29   ar
    29    29    30    2
    30    29     2   ar
    31    26     5   ar
    32    22    11   ar
    33    20    14   ar
    34     1    31    1
    35     1    32    1
    36     1    33    1
    37     7    34    1
    38     7    35    1
    39    10    36    1
    40    15    37    1
    41    16    38    1
    42    19    39    1
    43    20    40    1
    44    21    41    1
    45    23    42    1
    46    24    43    1
    47    25    44    1
    48    28    45    1
    49    28    46    1
    50    28    47    1
@<TRIPOS>MOLECULE
343234
 59 62 0 0 0
SMALL
GASTEIGER

@<TRIPOS>ATOM
      1 C           6.7269   -4.4087    1.6461 C.3     1  UNL1        0.0196
      2 N           6.5852   -2.9824    1.8153 N.ar    1  UNL1       -0.2635
      3 C           5.4299   -2.3760    1.4982 C.ar    1  UNL1        0.2643
      4 O           4.5137   -3.0856    1.0628 O.2     1  UNL1       -0.2668
      5 C           5.2454   -1.0092    1.6428 C.ar    1  UNL1        0.0668
      6 C           4.0403   -0.4380    1.3009 C.ar    1  UNL1       -0.0243
      7 C           2.8971   -1.2376    0.8050 C.3     1  UNL1        0.0503
      8 C           1.7367   -0.3214    0.4812 C.2     1  UNL1        0.2230
      9 O           1.8832    0.4320   -0.5126 O.2     1  UNL1       -0.2751
     10 N           0.5709   -0.2959    1.2256 N.am    1  UNL1       -0.2644
     11 C          -0.5765    0.6143    0.8856 C.ar    1  UNL1        0.1649
     12 N          -1.5654    0.5541    0.2906 N.ar    1  UNL1       -0.2246
     13 C          -2.4705    1.5025    0.0835 C.ar    1  UNL1        0.0802
     14 C          -3.7370    1.3136   -0.6978 C.ar    1  UNL1        0.0010
     15 C          -4.0720    0.1136   -1.2686 C.ar    1  UNL1       -0.0523
     16 C          -5.2173   -0.1036   -1.9960 C.ar    1  UNL1       -0.0574
     17 C          -6.0922    0.9537   -2.1651 C.ar    1  UNL1       -0.0419
     18 C          -7.3438    0.7384   -2.9452 C.3     1  UNL1       -0.0127
     19 C          -7.0962    0.9443   -4.4268 C.3     1  UNL1       -0.0560
     20 C          -7.8871   -0.6521   -2.7371 C.3     1  UNL1       -0.0560
     21 C          -8.4105    1.7258   -2.5025 C.3     1  UNL1       -0.0560
     22 C          -5.7917    2.1810   -1.6062 C.ar    1  UNL1       -0.0574
     23 C          -4.6100    2.3522   -0.8733 C.ar    1  UNL1       -0.0523
     24 C          -2.1539    2.7105    0.6726 C.ar    1  UNL1        0.0049
     25 S          -0.5479    2.3408    1.4818 S.2     1  UNL1       -0.0599
     26 C           3.9573    0.9420    1.4812 C.ar    1  UNL1       -0.0573
     27 C           5.0168    1.6763    1.9708 C.ar    1  UNL1       -0.0595
     28 C           6.2088    1.0659    2.3023 C.ar    1  UNL1       -0.0373
     29 C           6.3058   -0.2941    2.1291 C.ar    1  UNL1        0.0586
     30 N           7.4445   -0.9252    2.4373 N.ar    1  UNL1       -0.2962
     31 C           8.5547   -0.1629    2.9486 C.3     1  UNL1        0.0167
     32 C           7.5925   -2.2543    2.2853 C.ar    1  UNL1        0.3319
     33 O           8.6739   -2.8666    2.5760 O.2     1  UNL1       -0.2463
     34 H           5.7481   -4.8750    1.8624 H       1  UNL1        0.0458
     35 H           6.9829   -4.6742    0.5825 H       1  UNL1        0.0458
     36 H           7.5162   -4.8057    2.3207 H       1  UNL1        0.0458
     37 H           3.1068   -1.7200   -0.1668 H       1  UNL1        0.0407
     38 H           2.5804   -1.9137    1.6106 H       1  UNL1        0.0407
     39 H           0.4005   -0.8670    2.0406 H       1  UNL1        0.1567
     40 H          -3.3897   -0.7127   -1.1340 H       1  UNL1        0.0624
     41 H          -5.4447   -1.0666   -2.4289 H       1  UNL1        0.0621
     42 H          -6.6149    1.9426   -4.5885 H       1  UNL1        0.0238
     43 H          -6.4879    0.1436   -4.8793 H       1  UNL1        0.0238
     44 H          -8.0710    0.9595   -4.9652 H       1  UNL1        0.0238
     45 H          -8.0756   -0.7742   -1.6485 H       1  UNL1        0.0238
     46 H          -7.2788   -1.4542   -3.1812 H       1  UNL1        0.0238
     47 H          -8.8637   -0.6910   -3.3057 H       1  UNL1        0.0238
     48 H          -8.1482    2.7202   -2.9206 H       1  UNL1        0.0238
     49 H          -9.3741    1.3632   -2.9417 H       1  UNL1        0.0238
     50 H          -8.4043    1.7220   -1.4017 H       1  UNL1        0.0238
     51 H          -6.4780    2.9970   -1.7422 H       1  UNL1        0.0621
     52 H          -4.3803    3.3174   -0.4382 H       1  UNL1        0.0624
     53 H          -2.6571    3.6965    0.7113 H       1  UNL1        0.0716
     54 H           3.0515    1.4662    1.2370 H       1  UNL1        0.0621
     55 H           4.9447    2.7621    2.1114 H       1  UNL1        0.0618
     56 H           7.0639    1.6141    2.6925 H       1  UNL1        0.0638
     57 H           9.4280   -0.8004    3.1995 H       1  UNL1        0.0457
     58 H           8.8195    0.6001    2.1849 H       1  UNL1        0.0457
     59 H           8.2142    0.3025    3.8986 H       1  UNL1        0.0457
@<TRIPOS>BOND
     1     1     2    1
     2     2     3   ar
     3     3     4    2
     4     3     5   ar
     5     5     6   ar
     6     6     7    1
     7     7     8    1
     8     8     9    2
     9     8    10   am
    10    10    11    1
    11    11    12   ar
    12    12    13   ar
    13    13    14    1
    14    14    15   ar
    15    15    16   ar
    16    16    17   ar
    17    17    18    1
    18    18    19    1
    19    18    20    1
    20    18    21    1
    21    17    22   ar
    22    22    23   ar
    23    13    24   ar
    24    24    25   ar
    25     6    26   ar
    26    26    27   ar
    27    27    28   ar
    28    28    29   ar
    29    29    30   ar
    30    30    31    1
    31    30    32   ar
    32    32    33    2
    33    32     2   ar
    34    29     5   ar
    35    25    11   ar
    36    23    14   ar
    37     1    34    1
    38     1    35    1
    39     1    36    1
    40     7    37    1
    41     7    38    1
    42    10    39    1
    43    15    40    1
    44    16    41    1
    45    19    42    1
    46    19    43    1
    47    19    44    1
    48    20    45    1
    49    20    46    1
    50    20    47    1
    51    21    48    1
    52    21    49    1
    53    21    50    1
    54    22    51    1
    55    23    52    1
    56    24    53    1
    57    26    54    1
    58    27    55    1
    59    28    56    1
    60    31    57    1
    61    31    58    1
    62    31    59    1
@<TRIPOS>MOLECULE
343240
 50 53 0 0 0
SMALL
GASTEIGER

@<TRIPOS>ATOM
      1 C          -5.9752    2.2007   -2.0891 C.3     1  UNL1        0.0196
      2 N          -5.5943    1.3190   -1.0085 N.ar    1  UNL1       -0.2635
      3 C          -4.3427    0.7679   -0.9697 C.ar    1  UNL1        0.2643
      4 O          -3.5998    1.0775   -1.9121 O.2     1  UNL1       -0.2668
      5 C          -3.9358   -0.0660    0.0286 C.ar    1  UNL1        0.0668
      6 C          -2.6673   -0.6407    0.0628 C.ar    1  UNL1       -0.0243
      7 C          -1.7146   -0.3401   -1.0182 C.3     1  UNL1        0.0503
      8 C          -0.3145   -0.6560   -0.5795 C.2     1  UNL1        0.2230
      9 O          -0.0455   -0.5514    0.6393 O.2     1  UNL1       -0.2751
     10 N           0.6510   -1.0641   -1.5365 N.am    1  UNL1       -0.2644
     11 C           1.9863   -1.3549   -1.0402 C.ar    1  UNL1        0.1649
     12 N           3.0299   -0.7633   -0.8915 N.ar    1  UNL1       -0.2246
     13 C           4.1344   -1.2309   -0.4011 C.ar    1  UNL1        0.0803
     14 C           5.3763   -0.4042   -0.2583 C.ar    1  UNL1        0.0037
     15 C           5.4142    0.9119   -0.6461 C.ar    1  UNL1       -0.0518
     16 C           6.5390    1.6895   -0.5053 C.ar    1  UNL1       -0.0467
     17 C           7.6806    1.1509    0.0431 C.ar    1  UNL1        0.0899
     18 C           8.9065    1.9963    0.2228 C.3     1  UNL1        0.4201
     19 F           9.9984    1.4932   -0.4497 F       1  UNL1       -0.1658
     20 F           9.1032    2.0535    1.6005 F       1  UNL1       -0.1658
     21 F           8.5746    3.2741   -0.1969 F       1  UNL1       -0.1658
     22 C           7.6745   -0.1742    0.4438 C.ar    1  UNL1        0.1356
     23 F           8.7842   -0.7224    0.9797 F       1  UNL1       -0.2049
     24 C           6.5221   -0.9242    0.2846 C.ar    1  UNL1       -0.0167
     25 C           4.1318   -2.5274   -0.0037 C.ar    1  UNL1        0.0049
     26 S           2.3876   -2.9913   -0.4105 S.2     1  UNL1       -0.0599
     27 C          -2.4156   -1.4811    1.1337 C.ar    1  UNL1       -0.0573
     28 C          -3.3235   -1.7693    2.1381 C.ar    1  UNL1       -0.0595
     29 C          -4.5618   -1.1976    2.0907 C.ar    1  UNL1       -0.0373
     30 C          -4.8444   -0.3455    1.0189 C.ar    1  UNL1        0.0586
     31 N          -6.0844    0.1976    0.9835 N.ar    1  UNL1       -0.2962
     32 C          -7.0172   -0.1054    2.0191 C.3     1  UNL1        0.0167
     33 C          -6.4542    1.0307   -0.0338 C.ar    1  UNL1        0.3319
     34 O          -7.6335    1.5257   -0.0380 O.2     1  UNL1       -0.2463
     35 H          -6.1419    3.2122   -1.6850 H       1  UNL1        0.0458
     36 H          -5.1218    2.2827   -2.7962 H       1  UNL1        0.0458
     37 H          -6.8578    1.7872   -2.6410 H       1  UNL1        0.0458
     38 H          -1.6329    0.8091   -1.1576 H       1  UNL1        0.0407
     39 H          -1.9271   -0.8123   -1.9746 H       1  UNL1        0.0407
     40 H           0.3963   -1.1468   -2.5244 H       1  UNL1        0.1567
     41 H           4.5335    1.3670   -1.0787 H       1  UNL1        0.0624
     42 H           6.5670    2.7446   -0.8181 H       1  UNL1        0.0624
     43 H           6.5039   -1.9692    0.5920 H       1  UNL1        0.0653
     44 H           4.8453   -3.2214    0.4400 H       1  UNL1        0.0716
     45 H          -1.4484   -1.9827    1.1926 H       1  UNL1        0.0621
     46 H          -3.0026   -2.4501    2.9346 H       1  UNL1        0.0618
     47 H          -5.2672   -1.4241    2.8680 H       1  UNL1        0.0638
     48 H          -6.6039    0.1835    3.0234 H       1  UNL1        0.0457
     49 H          -7.9569    0.4507    1.8684 H       1  UNL1        0.0457
     50 H          -7.2555   -1.2088    2.0546 H       1  UNL1        0.0457
@<TRIPOS>BOND
     1     1     2    1
     2     2     3   ar
     3     3     4    2
     4     3     5   ar
     5     5     6   ar
     6     6     7    1
     7     7     8    1
     8     8     9    2
     9     8    10   am
    10    10    11    1
    11    11    12   ar
    12    12    13   ar
    13    13    14    1
    14    14    15   ar
    15    15    16   ar
    16    16    17   ar
    17    17    18    1
    18    18    19    1
    19    18    20    1
    20    18    21    1
    21    17    22   ar
    22    22    23    1
    23    22    24   ar
    24    13    25   ar
    25    25    26   ar
    26     6    27   ar
    27    27    28   ar
    28    28    29   ar
    29    29    30   ar
    30    30    31   ar
    31    31    32    1
    32    31    33   ar
    33    33    34    2
    34    33     2   ar
    35    30     5   ar
    36    26    11   ar
    37    24    14   ar
    38     1    35    1
    39     1    36    1
    40     1    37    1
    41     7    38    1
    42     7    39    1
    43    10    40    1
    44    15    41    1
    45    16    42    1
    46    24    43    1
    47    25    44    1
    48    27    45    1
    49    28    46    1
    50    29    47    1
    51    32    48    1
    52    32    49    1
    53    32    50    1
@<TRIPOS>MOLECULE
343307
 49 52 0 0 0
SMALL
GASTEIGER

@<TRIPOS>ATOM
      1 C          -5.5579   -2.0521    2.1431 C.3     1  UNL1        0.0196
      2 N          -5.2312   -0.9885    1.2126 N.ar    1  UNL1       -0.2634
      3 C          -4.2463   -1.2243    0.3177 C.ar    1  UNL1        0.2659
      4 O          -3.6547   -2.3206    0.2808 O.2     1  UNL1       -0.2668
      5 C          -3.8992   -0.2504   -0.5660 C.ar    1  UNL1        0.0857
      6 C          -2.9183   -0.4506   -1.5031 C.ar    1  UNL1       -0.0213
      7 C          -2.0680   -1.6287   -1.6169 C.3     1  UNL1        0.0504
      8 C          -0.8688   -1.6735   -0.7712 C.2     1  UNL1        0.2230
      9 O          -0.8512   -2.0746    0.4173 O.2     1  UNL1       -0.2751
     10 N           0.3894   -1.2409   -1.2645 N.am    1  UNL1       -0.2644
     11 C           1.5973   -1.2853   -0.4513 C.ar    1  UNL1        0.1649
     12 N           2.6724   -0.7632   -0.4303 N.ar    1  UNL1       -0.2246
     13 C           3.6653   -1.0009    0.3811 C.ar    1  UNL1        0.0803
     14 C           4.9226   -0.2179    0.3353 C.ar    1  UNL1        0.0037
     15 C           5.0870    0.8374   -0.5684 C.ar    1  UNL1       -0.0518
     16 C           6.2344    1.5854   -0.6207 C.ar    1  UNL1       -0.0467
     17 C           7.2915    1.3078    0.2445 C.ar    1  UNL1        0.0899
     18 C           8.5243    2.1564    0.1593 C.3     1  UNL1        0.4201
     19 F           9.5881    1.3448   -0.1848 F       1  UNL1       -0.1658
     20 F           8.3198    3.1381   -0.7673 F       1  UNL1       -0.1658
     21 F           8.7825    2.7602    1.3876 F       1  UNL1       -0.1658
     22 C           7.1415    0.2751    1.1302 C.ar    1  UNL1        0.1356
     23 F           8.1520   -0.0186    1.9772 F       1  UNL1       -0.2049
     24 C           5.9788   -0.4679    1.1707 C.ar    1  UNL1       -0.0167
     25 C           3.4289   -1.9654    1.3111 C.ar    1  UNL1        0.0049
     26 S           1.7613   -2.4679    0.9425 S.2     1  UNL1       -0.0599
     27 C          -2.6926    0.6547   -2.3697 C.ar    1  UNL1       -0.0391
     28 C          -3.4065    1.8122   -2.2579 C.ar    1  UNL1        0.0302
     29 N          -4.3489    1.9585   -1.3282 N.ar    1  UNL1       -0.2370
     30 C          -4.6082    0.9523   -0.4818 C.ar    1  UNL1        0.1497
     31 N          -5.5915    1.1856    0.4125 N.ar    1  UNL1       -0.2808
     32 C          -6.3073    2.4491    0.4610 C.3     1  UNL1        0.0181
     33 C          -5.9009    0.2039    1.2646 C.ar    1  UNL1        0.3330
     34 O          -6.8017    0.3326    2.1320 O.2     1  UNL1       -0.2462
     35 H          -4.6776   -2.1068    2.8390 H       1  UNL1        0.0458
     36 H          -5.5780   -3.0430    1.6304 H       1  UNL1        0.0458
     37 H          -6.4579   -1.8799    2.7329 H       1  UNL1        0.0458
     38 H          -2.5916   -2.6144   -1.6424 H       1  UNL1        0.0407
     39 H          -1.6617   -1.6110   -2.6881 H       1  UNL1        0.0407
     40 H           0.5032   -0.8777   -2.2022 H       1  UNL1        0.1567
     41 H           4.2460    1.0399   -1.2328 H       1  UNL1        0.0624
     42 H           6.3380    2.3973   -1.3166 H       1  UNL1        0.0624
     43 H           5.8857   -1.2910    1.8976 H       1  UNL1        0.0653
     44 H           4.0943   -2.3811    2.1299 H       1  UNL1        0.0716
     45 H          -1.9186    0.5012   -3.1103 H       1  UNL1        0.0636
     46 H          -3.1989    2.6166   -2.9341 H       1  UNL1        0.0830
     47 H          -6.1687    3.0415   -0.4756 H       1  UNL1        0.0458
     48 H          -7.4144    2.2966    0.5551 H       1  UNL1        0.0458
     49 H          -5.9838    3.0488    1.3179 H       1  UNL1        0.0458
@<TRIPOS>BOND
     1     1     2    1
     2     2     3   ar
     3     3     4    2
     4     3     5   ar
     5     5     6   ar
     6     6     7    1
     7     7     8    1
     8     8     9    2
     9     8    10   am
    10    10    11    1
    11    11    12   ar
    12    12    13   ar
    13    13    14    1
    14    14    15   ar
    15    15    16   ar
    16    16    17   ar
    17    17    18    1
    18    18    19    1
    19    18    20    1
    20    18    21    1
    21    17    22   ar
    22    22    23    1
    23    22    24   ar
    24    13    25   ar
    25    25    26   ar
    26     6    27   ar
    27    27    28   ar
    28    28    29   ar
    29    29    30   ar
    30    30    31   ar
    31    31    32    1
    32    31    33   ar
    33    33    34    2
    34    33     2   ar
    35    30     5   ar
    36    26    11   ar
    37    24    14   ar
    38     1    35    1
    39     1    36    1
    40     1    37    1
    41     7    38    1
    42     7    39    1
    43    10    40    1
    44    15    41    1
    45    16    42    1
    46    24    43    1
    47    25    44    1
    48    27    45    1
    49    28    46    1
    50    32    47    1
    51    32    48    1
    52    32    49    1
@<TRIPOS>MOLECULE
343276
 47 50 0 0 0
SMALL
GASTEIGER

@<TRIPOS>ATOM
      1 C          -4.3036    1.1208    2.7213 C.3     1  UNL1        0.0196
      2 N          -4.2512    0.8159    1.3156 N.ar    1  UNL1       -0.2633
      3 C          -3.7625   -0.3639    0.8859 C.ar    1  UNL1        0.2675
      4 O          -3.3498   -1.2184    1.7096 O.2     1  UNL1       -0.2667
      5 C          -3.6866   -0.6967   -0.4509 C.ar    1  UNL1        0.1062
      6 C          -3.2595   -1.7645   -1.1796 C.ar    1  UNL1        0.0137
      7 C          -2.7022   -3.0145   -0.6649 C.3     1  UNL1        0.0532
      8 C          -1.3126   -2.9225   -0.1705 C.2     1  UNL1        0.2231
      9 O          -0.9023   -3.8378    0.5899 O.2     1  UNL1       -0.2751
     10 N          -0.4236   -1.8842   -0.4916 N.am    1  UNL1       -0.2644
     11 C           0.9187   -1.8491    0.0171 C.ar    1  UNL1        0.1649
     12 N           1.8871   -1.0267   -0.0847 N.ar    1  UNL1       -0.2246
     13 C           3.0327   -1.2146    0.4683 C.ar    1  UNL1        0.0803
     14 C           4.1522   -0.2156    0.3364 C.ar    1  UNL1        0.0037
     15 C           3.9805    0.9441   -0.3879 C.ar    1  UNL1       -0.0518
     16 C           5.0235    1.8514   -0.4956 C.ar    1  UNL1       -0.0467
     17 C           6.2444    1.6283    0.1056 C.ar    1  UNL1        0.0899
     18 C           7.3627    2.6151   -0.0192 C.3     1  UNL1        0.4201
     19 F           7.7098    3.0501    1.2682 F       1  UNL1       -0.1658
     20 F           8.5009    2.0335   -0.5413 F       1  UNL1       -0.1658
     21 F           6.9709    3.7180   -0.7355 F       1  UNL1       -0.1658
     22 C           6.4153    0.4695    0.8287 C.ar    1  UNL1        0.1356
     23 F           7.5988    0.2318    1.4248 F       1  UNL1       -0.2049
     24 C           5.3609   -0.4294    0.9274 C.ar    1  UNL1       -0.0167
     25 C           3.2328   -2.3415    1.1992 C.ar    1  UNL1        0.0049
     26 S           1.5972   -3.1593    1.0399 S.2     1  UNL1       -0.0599
     27 C          -3.4560   -1.4662   -2.5313 C.ar    1  UNL1        0.0988
     28 O          -3.9781   -0.2694   -2.5750 O.2     1  UNL1       -0.4460
     29 C          -4.1352    0.2296   -1.3847 C.ar    1  UNL1        0.2171
     30 N          -4.6168    1.3983   -0.9013 N.ar    1  UNL1       -0.2667
     31 C          -5.0935    2.3769   -1.8652 C.3     1  UNL1        0.0194
     32 C          -4.6740    1.6837    0.3993 C.ar    1  UNL1        0.3341
     33 O          -5.1419    2.8046    0.7513 O.2     1  UNL1       -0.2462
     34 H          -4.4181    2.2223    2.8289 H       1  UNL1        0.0458
     35 H          -5.1394    0.5832    3.2036 H       1  UNL1        0.0458
     36 H          -3.3605    0.7920    3.2038 H       1  UNL1        0.0458
     37 H          -3.3289   -3.4652    0.1451 H       1  UNL1        0.0408
     38 H          -2.6875   -3.8024   -1.4679 H       1  UNL1        0.0408
     39 H          -0.7173   -1.1230   -1.1013 H       1  UNL1        0.1567
     40 H           3.0277    1.1277   -0.8641 H       1  UNL1        0.0624
     41 H           4.9058    2.7687   -1.0614 H       1  UNL1        0.0624
     42 H           5.5134   -1.3371    1.4984 H       1  UNL1        0.0653
     43 H           4.0691   -2.7667    1.7680 H       1  UNL1        0.0716
     44 H          -3.2075   -2.1335   -3.3638 H       1  UNL1        0.1033
     45 H          -4.2500    2.9906   -2.1866 H       1  UNL1        0.0458
     46 H          -5.8627    3.0167   -1.3782 H       1  UNL1        0.0458
     47 H          -5.4831    1.8292   -2.7341 H       1  UNL1        0.0458
@<TRIPOS>BOND
     1     1     2    1
     2     2     3   ar
     3     3     4    2
     4     3     5   ar
     5     5     6   ar
     6     6     7    1
     7     7     8    1
     8     8     9    2
     9     8    10   am
    10    10    11    1
    11    11    12   ar
    12    12    13   ar
    13    13    14    1
    14    14    15   ar
    15    15    16   ar
    16    16    17   ar
    17    17    18    1
    18    18    19    1
    19    18    20    1
    20    18    21    1
    21    17    22   ar
    22    22    23    1
    23    22    24   ar
    24    13    25   ar
    25    25    26   ar
    26     6    27   ar
    27    27    28   ar
    28    28    29   ar
    29    29    30   ar
    30    30    31    1
    31    30    32   ar
    32    32    33    2
    33    32     2   ar
    34    29     5   ar
    35    26    11   ar
    36    24    14   ar
    37     1    34    1
    38     1    35    1
    39     1    36    1
    40     7    37    1
    41     7    38    1
    42    10    39    1
    43    15    40    1
    44    16    41    1
    45    24    42    1
    46    25    43    1
    47    27    44    1
    48    31    45    1
    49    31    46    1
    50    31    47    1
@<TRIPOS>MOLECULE
343303
 46 49 0 0 0
SMALL
GASTEIGER

@<TRIPOS>ATOM
      1 C          -4.6929    2.6101    1.1261 C.3     1  UNL1        0.0196
      2 N          -4.9604    1.3175    0.4735 N.ar    1  UNL1       -0.2634
      3 C          -4.0633    0.8329   -0.3892 C.ar    1  UNL1        0.2664
      4 O          -3.0347    1.5143   -0.5948 O.2     1  UNL1       -0.2668
      5 C          -4.2887   -0.4077   -1.0355 C.ar    1  UNL1        0.0937
      6 C          -3.4593   -0.9871   -1.9170 C.ar    1  UNL1        0.0735
      7 C          -2.1280   -0.4678   -2.4115 C.3     1  UNL1        0.0681
      8 C          -1.0798   -0.6706   -1.3858 C.2     1  UNL1        0.2245
      9 O          -1.4095   -1.2174   -0.2875 O.2     1  UNL1       -0.2750
     10 N           0.2579   -0.2980   -1.5464 N.am    1  UNL1       -0.2644
     11 C           1.2402   -0.5206   -0.5100 C.ar    1  UNL1        0.1649
     12 N           2.4894   -0.2638   -0.4596 N.ar    1  UNL1       -0.2246
     13 C           3.2616   -0.5117    0.5259 C.ar    1  UNL1        0.0803
     14 C           4.7143   -0.1965    0.5430 C.ar    1  UNL1        0.0037
     15 C           5.3325    0.3986   -0.5329 C.ar    1  UNL1       -0.0518
     16 C           6.6765    0.7050   -0.5547 C.ar    1  UNL1       -0.0467
     17 C           7.4466    0.4042    0.5502 C.ar    1  UNL1        0.0899
     18 C           8.8954    0.7163    0.5684 C.3     1  UNL1        0.4201
     19 F           9.6770   -0.4135    0.7397 F       1  UNL1       -0.1658
     20 F           9.1340    1.6164    1.6082 F       1  UNL1       -0.1658
     21 F           9.2641    1.3535   -0.5932 F       1  UNL1       -0.1658
     22 C           6.8349   -0.1884    1.6236 C.ar    1  UNL1        0.1356
     23 F           7.5748   -0.4856    2.7044 F       1  UNL1       -0.2049
     24 C           5.4695   -0.4960    1.6373 C.ar    1  UNL1       -0.0167
     25 C           2.6339   -1.1315    1.6525 C.ar    1  UNL1        0.0049
     26 S           0.9553   -1.2487    1.0497 S.2     1  UNL1       -0.0599
     27 N          -3.8761   -2.1946   -2.4240 N.ar    1  UNL1       -0.2121
     28 S          -5.5085   -2.4728   -1.5885 S.2     1  UNL1        0.0304
     29 C          -5.4410   -1.0115   -0.7040 C.ar    1  UNL1        0.1164
     30 N          -6.3328   -0.4776    0.1866 N.ar    1  UNL1       -0.2892
     31 C          -7.5287   -1.2339    0.4455 C.3     1  UNL1        0.0172
     32 C          -6.1199    0.6898    0.7944 C.ar    1  UNL1        0.3323
     33 O          -6.9377    1.1579    1.5976 O.2     1  UNL1       -0.2462
     34 H          -5.6353    3.1834    1.2237 H       1  UNL1        0.0458
     35 H          -3.9355    3.1479    0.5328 H       1  UNL1        0.0458
     36 H          -4.3199    2.4564    2.1658 H       1  UNL1        0.0458
     37 H          -2.2375    0.6130   -2.7012 H       1  UNL1        0.0423
     38 H          -1.8195   -0.9961   -3.3237 H       1  UNL1        0.0423
     39 H           0.5814    0.1435   -2.4028 H       1  UNL1        0.1567
     40 H           4.7234    0.6345   -1.4026 H       1  UNL1        0.0624
     41 H           7.1134    1.1709   -1.4211 H       1  UNL1        0.0624
     42 H           5.0386   -0.9661    2.5172 H       1  UNL1        0.0653
     43 H           3.0675   -1.4474    2.6212 H       1  UNL1        0.0716
     44 H          -7.3184   -2.1933    0.9677 H       1  UNL1        0.0457
     45 H          -7.9289   -1.5279   -0.5707 H       1  UNL1        0.0457
     46 H          -8.3258   -0.6401    0.8997 H       1  UNL1        0.0457
@<TRIPOS>BOND
     1     1     2    1
     2     2     3   ar
     3     3     4    2
     4     3     5   ar
     5     5     6   ar
     6     6     7    1
     7     7     8    1
     8     8     9    2
     9     8    10   am
    10    10    11    1
    11    11    12   ar
    12    12    13   ar
    13    13    14    1
    14    14    15   ar
    15    15    16   ar
    16    16    17   ar
    17    17    18    1
    18    18    19    1
    19    18    20    1
    20    18    21    1
    21    17    22   ar
    22    22    23    1
    23    22    24   ar
    24    13    25   ar
    25    25    26   ar
    26     6    27   ar
    27    27    28   ar
    28    28    29   ar
    29    29    30   ar
    30    30    31    1
    31    30    32   ar
    32    32    33    2
    33    32     2   ar
    34    29     5   ar
    35    26    11   ar
    36    24    14   ar
    37     1    34    1
    38     1    35    1
    39     1    36    1
    40     7    37    1
    41     7    38    1
    42    10    39    1
    43    15    40    1
    44    16    41    1
    45    24    42    1
    46    25    43    1
    47    31    44    1
    48    31    45    1
    49    31    46    1
@<TRIPOS>MOLECULE
343250
 50 53 0 0 0
SMALL
GASTEIGER

@<TRIPOS>ATOM
      1 C          -6.6188   -1.5498   -1.9440 C.3     1  UNL1        0.0196
      2 N          -5.8333   -0.6928   -1.0821 N.ar    1  UNL1       -0.2635
      3 C          -4.4948   -0.8315   -1.0202 C.ar    1  UNL1        0.2643
      4 O          -3.9482   -1.7330   -1.7368 O.2     1  UNL1       -0.2668
      5 C          -3.7325   -0.0227   -0.2064 C.ar    1  UNL1        0.0668
      6 C          -2.3470   -0.1580   -0.1269 C.ar    1  UNL1       -0.0243
      7 C          -1.6510   -1.1982   -0.9224 C.3     1  UNL1        0.0503
      8 C          -0.1755   -1.1220   -0.6289 C.2     1  UNL1        0.2230
      9 O           0.4883   -0.1250   -0.9883 O.2     1  UNL1       -0.2751
     10 N           0.5085   -2.1394    0.0462 N.am    1  UNL1       -0.2644
     11 C           1.9319   -2.0243    0.3129 C.ar    1  UNL1        0.1649
     12 N           2.8570   -1.3457    0.1747 N.ar    1  UNL1       -0.2245
     13 C           4.1007   -1.5068    0.5461 C.ar    1  UNL1        0.0831
     14 C           5.1669   -0.5250    0.2837 C.ar    1  UNL1        0.0390
     15 C           4.8764    0.6687   -0.3845 C.ar    1  UNL1       -0.0491
     16 C           5.8546    1.5925   -0.6449 C.ar    1  UNL1       -0.0465
     17 C           7.1586    1.3847   -0.2607 C.ar    1  UNL1        0.0928
     18 C           8.2571    2.3634   -0.5290 C.3     1  UNL1        0.4202
     19 F           9.2101    1.7251   -1.3241 F       1  UNL1       -0.1658
     20 F           8.8994    2.6220    0.6666 F       1  UNL1       -0.1658
     21 F           7.7978    3.4885   -1.1386 F       1  UNL1       -0.1658
     22 C           7.4884    0.2290    0.3971 C.ar    1  UNL1        0.1707
     23 F           8.7457   -0.0306    0.7987 F       1  UNL1       -0.2019
     24 C           6.4760   -0.6961    0.6504 C.ar    1  UNL1        0.1681
     25 F           6.8557   -1.8267    1.3059 F       1  UNL1       -0.2018
     26 C           4.3321   -2.7044    1.2209 C.ar    1  UNL1        0.0050
     27 S           2.7127   -3.4755    1.2457 S.2     1  UNL1       -0.0599
     28 C          -1.7100    0.7117    0.7291 C.ar    1  UNL1       -0.0573
     29 C          -2.3838    1.6542    1.4621 C.ar    1  UNL1       -0.0595
     30 C          -3.7347    1.7852    1.3847 C.ar    1  UNL1       -0.0373
     31 C          -4.4319    0.9229    0.5257 C.ar    1  UNL1        0.0586
     32 N          -5.7612    1.0398    0.4462 N.ar    1  UNL1       -0.2962
     33 C          -6.4470    2.0383    1.2315 C.3     1  UNL1        0.0167
     34 C          -6.4801    0.2355   -0.3574 C.ar    1  UNL1        0.3319
     35 O          -7.7476    0.3665   -0.4147 O.2     1  UNL1       -0.2463
     36 H          -7.6672   -1.1786   -1.9999 H       1  UNL1        0.0458
     37 H          -6.1848   -1.6340   -2.9643 H       1  UNL1        0.0458
     38 H          -6.6776   -2.5790   -1.5099 H       1  UNL1        0.0458
     39 H          -1.9728   -2.2264   -0.6425 H       1  UNL1        0.0407
     40 H          -1.7125   -1.0127   -2.0165 H       1  UNL1        0.0407
     41 H          -0.0329   -2.9776    0.3522 H       1  UNL1        0.1567
     42 H           3.8418    0.8182   -0.6801 H       1  UNL1        0.0625
     43 H           5.6157    2.5199   -1.1670 H       1  UNL1        0.0624
     44 H           5.2157   -3.1405    1.6541 H       1  UNL1        0.0716
     45 H          -0.6368    0.6382    0.8250 H       1  UNL1        0.0621
     46 H          -1.8024    2.2979    2.1142 H       1  UNL1        0.0618
     47 H          -4.2542    2.5340    1.9658 H       1  UNL1        0.0638
     48 H          -6.2458    3.0635    0.8705 H       1  UNL1        0.0457
     49 H          -6.1480    1.8781    2.2892 H       1  UNL1        0.0457
     50 H          -7.5584    1.8787    1.1894 H       1  UNL1        0.0457
@<TRIPOS>BOND
     1     1     2    1
     2     2     3   ar
     3     3     4    2
     4     3     5   ar
     5     5     6   ar
     6     6     7    1
     7     7     8    1
     8     8     9    2
     9     8    10   am
    10    10    11    1
    11    11    12   ar
    12    12    13   ar
    13    13    14    1
    14    14    15   ar
    15    15    16   ar
    16    16    17   ar
    17    17    18    1
    18    18    19    1
    19    18    20    1
    20    18    21    1
    21    17    22   ar
    22    22    23    1
    23    22    24   ar
    24    24    25    1
    25    13    26   ar
    26    26    27   ar
    27     6    28   ar
    28    28    29   ar
    29    29    30   ar
    30    30    31   ar
    31    31    32   ar
    32    32    33    1
    33    32    34   ar
    34    34    35    2
    35    34     2   ar
    36    31     5   ar
    37    27    11   ar
    38    24    14   ar
    39     1    36    1
    40     1    37    1
    41     1    38    1
    42     7    39    1
    43     7    40    1
    44    10    41    1
    45    15    42    1
    46    16    43    1
    47    26    44    1
    48    28    45    1
    49    29    46    1
    50    30    47    1
    51    33    48    1
    52    33    49    1
    53    33    50    1
@<TRIPOS>MOLECULE
343306
 46 49 0 0 0
SMALL
GASTEIGER

@<TRIPOS>ATOM
      1 C          -6.2035   -0.5496    2.1306 C.3     1  UNL1        0.0196
      2 N          -5.6169   -0.1769    0.8285 N.ar    1  UNL1       -0.2634
      3 C          -4.5859   -0.8738    0.3230 C.ar    1  UNL1        0.2664
      4 O          -4.1673   -1.8392    1.0024 O.2     1  UNL1       -0.2668
      5 C          -4.0162   -0.5275   -0.9108 C.ar    1  UNL1        0.0937
      6 C          -3.0017   -1.1181   -1.5379 C.ar    1  UNL1        0.0735
      7 C          -2.1189   -2.2719   -1.0720 C.3     1  UNL1        0.0681
      8 C          -1.0627   -1.7679   -0.1709 C.2     1  UNL1        0.2245
      9 O          -1.2298   -1.4467    1.0146 O.2     1  UNL1       -0.2750
     10 N           0.2757   -1.6164   -0.6649 N.am    1  UNL1       -0.2644
     11 C           1.3130   -1.1267    0.1943 C.ar    1  UNL1        0.1649
     12 N           2.4919   -0.7702    0.0875 N.ar    1  UNL1       -0.2245
     13 C           3.3082   -0.3687    0.9601 C.ar    1  UNL1        0.0831
     14 C           4.6910    0.0758    0.6621 C.ar    1  UNL1        0.0390
     15 C           5.0872    0.2585   -0.6643 C.ar    1  UNL1       -0.0491
     16 C           6.3558    0.6547   -1.0012 C.ar    1  UNL1       -0.0465
     17 C           7.2751    0.8824   -0.0160 C.ar    1  UNL1        0.0928
     18 C           8.6663    1.3287   -0.4117 C.3     1  UNL1        0.4202
     19 F           8.7557    1.4306   -1.7857 F       1  UNL1       -0.1658
     20 F           9.5921    0.4771    0.1366 F       1  UNL1       -0.1658
     21 F           8.8855    2.5890    0.1076 F       1  UNL1       -0.1658
     22 C           6.9246    0.7133    1.2898 C.ar    1  UNL1        0.1707
     23 F           7.8258    0.9344    2.2603 F       1  UNL1       -0.2019
     24 C           5.6314    0.3103    1.6161 C.ar    1  UNL1        0.1681
     25 F           5.3307    0.1394    2.9395 F       1  UNL1       -0.2018
     26 C           2.7764   -0.3141    2.3286 C.ar    1  UNL1        0.0050
     27 S           1.0739   -0.9041    2.0199 S.2     1  UNL1       -0.0599
     28 N          -2.6261   -0.6055   -2.7450 N.ar    1  UNL1       -0.2121
     29 S          -3.7581    0.7690   -2.9877 S.2     1  UNL1        0.0304
     30 C          -4.5997    0.5460   -1.5171 C.ar    1  UNL1        0.1164
     31 N          -5.6618    1.2349   -0.9580 N.ar    1  UNL1       -0.2892
     32 C          -6.2048    2.3802   -1.6834 C.3     1  UNL1        0.0172
     33 C          -6.1704    0.8624    0.2301 C.ar    1  UNL1        0.3323
     34 O          -7.1321    1.5382    0.6686 O.2     1  UNL1       -0.2462
     35 H          -7.1495   -1.0671    1.8769 H       1  UNL1        0.0458
     36 H          -5.5436   -1.2347    2.6772 H       1  UNL1        0.0458
     37 H          -6.4615    0.3840    2.6641 H       1  UNL1        0.0458
     38 H          -1.7620   -2.8783   -1.9176 H       1  UNL1        0.0423
     39 H          -2.7662   -2.9726   -0.4764 H       1  UNL1        0.0423
     40 H           0.4404   -1.8705   -1.6380 H       1  UNL1        0.1567
     41 H           4.3418    0.0722   -1.4375 H       1  UNL1        0.0625
     42 H           6.5742    0.7697   -2.0532 H       1  UNL1        0.0624
     43 H           3.1770   -0.0452    3.1895 H       1  UNL1        0.0716
     44 H          -6.7922    2.9563   -0.9718 H       1  UNL1        0.0457
     45 H          -5.3878    3.0436   -2.0467 H       1  UNL1        0.0457
     46 H          -6.7750    1.9950   -2.5393 H       1  UNL1        0.0457
@<TRIPOS>BOND
     1     1     2    1
     2     2     3   ar
     3     3     4    2
     4     3     5   ar
     5     5     6   ar
     6     6     7    1
     7     7     8    1
     8     8     9    2
     9     8    10   am
    10    10    11    1
    11    11    12   ar
    12    12    13   ar
    13    13    14    1
    14    14    15   ar
    15    15    16   ar
    16    16    17   ar
    17    17    18    1
    18    18    19    1
    19    18    20    1
    20    18    21    1
    21    17    22   ar
    22    22    23    1
    23    22    24   ar
    24    24    25    1
    25    13    26   ar
    26    26    27   ar
    27     6    28   ar
    28    28    29   ar
    29    29    30   ar
    30    30    31   ar
    31    31    32    1
    32    31    33   ar
    33    33    34    2
    34    33     2   ar
    35    30     5   ar
    36    27    11   ar
    37    24    14   ar
    38     1    35    1
    39     1    36    1
    40     1    37    1
    41     7    38    1
    42     7    39    1
    43    10    40    1
    44    15    41    1
    45    16    42    1
    46    26    43    1
    47    32    44    1
    48    32    45    1
    49    32    46    1
@<TRIPOS>MOLECULE
343233
 50 53 0 0 0
SMALL
GASTEIGER

@<TRIPOS>ATOM
      1 C          -5.6435    3.2925   -0.8493 C.3     1  UNL1        0.0196
      2 N          -5.4068    1.9758   -0.3014 N.ar    1  UNL1       -0.2635
      3 C          -4.2657    1.2798   -0.5936 C.ar    1  UNL1        0.2643
      4 O          -3.4570    1.8576   -1.3456 O.2     1  UNL1       -0.2668
      5 C          -4.0033    0.0359   -0.1106 C.ar    1  UNL1        0.0668
      6 C          -2.8415   -0.6882   -0.3957 C.ar    1  UNL1       -0.0243
      7 C          -1.8368   -0.0070   -1.2054 C.3     1  UNL1        0.0503
      8 C          -0.5329   -0.7742   -1.1701 C.2     1  UNL1        0.2230
      9 O          -0.3587   -1.8053   -1.9022 O.2     1  UNL1       -0.2751
     10 N           0.4868   -0.3432   -0.3323 N.am    1  UNL1       -0.2644
     11 C           1.8222   -0.8822   -0.1572 C.ar    1  UNL1        0.1649
     12 N           2.9226   -0.5304   -0.2352 N.ar    1  UNL1       -0.2246
     13 C           4.0531   -1.1516   -0.0571 C.ar    1  UNL1        0.0802
     14 C           5.4142   -0.5353   -0.1372 C.ar    1  UNL1        0.0010
     15 C           5.5567    0.8044   -0.4188 C.ar    1  UNL1       -0.0520
     16 C           6.7596    1.4496   -0.4807 C.ar    1  UNL1       -0.0495
     17 C           7.9013    0.7011   -0.2433 C.ar    1  UNL1        0.0548
     18 C           9.1826    1.4536   -0.3093 C.3     1  UNL1        0.4174
     19 F          10.2900    0.6504   -0.2626 F       1  UNL1       -0.1659
     20 F           9.1564    2.3736    0.7405 F       1  UNL1       -0.1659
     21 F           9.1295    2.2157   -1.4817 F       1  UNL1       -0.1659
     22 C           7.8049   -0.6319    0.0400 C.ar    1  UNL1       -0.0495
     23 C           6.5482   -1.2541    0.0918 C.ar    1  UNL1       -0.0520
     24 C           3.8677   -2.5158    0.2959 C.ar    1  UNL1        0.0049
     25 S           2.0830   -2.6797    0.3140 S.2     1  UNL1       -0.0599
     26 C          -2.6886   -1.9528    0.1479 C.ar    1  UNL1       -0.0573
     27 C          -3.6322   -2.5311    0.9640 C.ar    1  UNL1       -0.0595
     28 C          -4.7695   -1.8015    1.2411 C.ar    1  UNL1       -0.0373
     29 C          -4.9458   -0.5424    0.7120 C.ar    1  UNL1        0.0586
     30 N          -6.0704    0.1669    0.9895 N.ar    1  UNL1       -0.2962
     31 C          -7.0602   -0.4476    1.8781 C.3     1  UNL1        0.0167
     32 C          -6.2894    1.3852    0.4962 C.ar    1  UNL1        0.3319
     33 O          -7.3540    1.9758    0.7980 O.2     1  UNL1       -0.2463
     34 H          -6.7219    3.5043   -0.9211 H       1  UNL1        0.0458
     35 H          -5.2716    3.2687   -1.9014 H       1  UNL1        0.0458
     36 H          -5.1236    4.0802   -0.2973 H       1  UNL1        0.0458
     37 H          -2.0916    0.0648   -2.2795 H       1  UNL1        0.0407
     38 H          -1.5454    0.9961   -0.7872 H       1  UNL1        0.0407
     39 H           0.3155    0.4987    0.2967 H       1  UNL1        0.1567
     40 H           4.6189    1.3551   -0.5980 H       1  UNL1        0.0624
     41 H           6.8000    2.5071   -0.7011 H       1  UNL1        0.0623
     42 H           8.7082   -1.1946    0.2232 H       1  UNL1        0.0623
     43 H           6.5123   -2.3233    0.3158 H       1  UNL1        0.0624
     44 H           4.6106   -3.2694    0.5089 H       1  UNL1        0.0716
     45 H          -1.7770   -2.4914   -0.0993 H       1  UNL1        0.0621
     46 H          -3.4722   -3.5320    1.3757 H       1  UNL1        0.0618
     47 H          -5.5143   -2.2340    1.8715 H       1  UNL1        0.0638
     48 H          -6.5665   -0.7248    2.8557 H       1  UNL1        0.0457
     49 H          -7.8686    0.2979    2.0719 H       1  UNL1        0.0457
     50 H          -7.4354   -1.3471    1.3442 H       1  UNL1        0.0457
@<TRIPOS>BOND
     1     1     2    1
     2     2     3   ar
     3     3     4    2
     4     3     5   ar
     5     5     6   ar
     6     6     7    1
     7     7     8    1
     8     8     9    2
     9     8    10   am
    10    10    11    1
    11    11    12   ar
    12    12    13   ar
    13    13    14    1
    14    14    15   ar
    15    15    16   ar
    16    16    17   ar
    17    17    18    1
    18    18    19    1
    19    18    20    1
    20    18    21    1
    21    17    22   ar
    22    22    23   ar
    23    13    24   ar
    24    24    25   ar
    25     6    26   ar
    26    26    27   ar
    27    27    28   ar
    28    28    29   ar
    29    29    30   ar
    30    30    31    1
    31    30    32   ar
    32    32    33    2
    33    32     2   ar
    34    29     5   ar
    35    25    11   ar
    36    23    14   ar
    37     1    34    1
    38     1    35    1
    39     1    36    1
    40     7    37    1
    41     7    38    1
    42    10    39    1
    43    15    40    1
    44    16    41    1
    45    22    42    1
    46    23    43    1
    47    24    44    1
    48    26    45    1
    49    27    46    1
    50    28    47    1
    51    31    48    1
    52    31    49    1
    53    31    50    1
@<TRIPOS>MOLECULE
343241
 50 53 0 0 0
SMALL
GASTEIGER

@<TRIPOS>ATOM
      1 C          -5.9834    2.8109   -1.4812 C.3     1  UNL1        0.0196
      2 N          -5.5640    1.6671   -0.6947 N.ar    1  UNL1       -0.2635
      3 C          -4.3112    1.1399   -0.8091 C.ar    1  UNL1        0.2643
      4 O          -3.5487    1.6777   -1.6164 O.2     1  UNL1       -0.2668
      5 C          -3.9456    0.0703   -0.0588 C.ar    1  UNL1        0.0668
      6 C          -2.6653   -0.5047   -0.1697 C.ar    1  UNL1       -0.0243
      7 C          -1.6728    0.0493   -1.1127 C.3     1  UNL1        0.0503
      8 C          -0.2914   -0.4081   -0.6990 C.2     1  UNL1        0.2230
      9 O          -0.0755   -0.5126    0.5287 O.2     1  UNL1       -0.2751
     10 N           0.6852   -0.7004   -1.6432 N.am    1  UNL1       -0.2644
     11 C           2.0042   -1.1460   -1.1307 C.ar    1  UNL1        0.1649
     12 N           3.0488   -0.6593   -0.8703 N.ar    1  UNL1       -0.2245
     13 C           4.1258   -1.2623   -0.4135 C.ar    1  UNL1        0.0830
     14 C           5.3977   -0.5249   -0.1492 C.ar    1  UNL1        0.0361
     15 C           5.4885    0.8421   -0.3934 C.ar    1  UNL1       -0.0493
     16 C           6.6096    1.5916   -0.1946 C.ar    1  UNL1       -0.0493
     17 C           7.7276    0.9379    0.2823 C.ar    1  UNL1        0.0576
     18 C           8.9662    1.7578    0.4977 C.3     1  UNL1        0.4175
     19 F          10.0839    0.9790    0.2389 F       1  UNL1       -0.1659
     20 F           8.9580    2.2298    1.7756 F       1  UNL1       -0.1659
     21 F           8.9281    2.8268   -0.3669 F       1  UNL1       -0.1659
     22 C           7.7032   -0.4086    0.5432 C.ar    1  UNL1       -0.0142
     23 C           6.5266   -1.1244    0.3206 C.ar    1  UNL1        0.1331
     24 F           6.5164   -2.4521    0.5824 F       1  UNL1       -0.2048
     25 C           4.0188   -2.5925   -0.2202 C.ar    1  UNL1        0.0050
     26 S           2.2660   -2.8861   -0.7462 S.2     1  UNL1       -0.0599
     27 C          -2.4372   -1.6004    0.6366 C.ar    1  UNL1       -0.0573
     28 C          -3.3515   -2.1425    1.5123 C.ar    1  UNL1       -0.0595
     29 C          -4.5768   -1.5713    1.6031 C.ar    1  UNL1       -0.0373
     30 C          -4.8675   -0.4666    0.8156 C.ar    1  UNL1        0.0586
     31 N          -6.1165    0.0613    0.9268 N.ar    1  UNL1       -0.2962
     32 C          -7.0747   -0.5336    1.8597 C.3     1  UNL1        0.0167
     33 C          -6.4175    1.1079    0.1678 C.ar    1  UNL1        0.3319
     34 O          -7.5939    1.5843    0.2911 O.2     1  UNL1       -0.2463
     35 H          -6.3629    2.4306   -2.4366 H       1  UNL1        0.0458
     36 H          -6.8445    3.3190   -0.9761 H       1  UNL1        0.0458
     37 H          -5.1522    3.5166   -1.6826 H       1  UNL1        0.0458
     38 H          -1.5707    1.1805   -0.9595 H       1  UNL1        0.0407
     39 H          -1.8361   -0.1994   -2.1574 H       1  UNL1        0.0407
     40 H           0.5099   -0.6136   -2.6544 H       1  UNL1        0.1567
     41 H           4.6012    1.3359   -0.7688 H       1  UNL1        0.0625
     42 H           6.6523    2.6649   -0.3941 H       1  UNL1        0.0623
     43 H           8.5756   -0.9244    0.9182 H       1  UNL1        0.0652
     44 H           4.6591   -3.4125    0.1308 H       1  UNL1        0.0716
     45 H          -1.4771   -2.1279    0.5908 H       1  UNL1        0.0621
     46 H          -3.0802   -3.0184    2.1162 H       1  UNL1        0.0618
     47 H          -5.3295   -1.9653    2.2788 H       1  UNL1        0.0638
     48 H          -6.6240   -0.4867    2.8640 H       1  UNL1        0.0457
     49 H          -8.0161    0.0468    1.7766 H       1  UNL1        0.0457
     50 H          -7.2661   -1.5832    1.5401 H       1  UNL1        0.0457
@<TRIPOS>BOND
     1     1     2    1
     2     2     3   ar
     3     3     4    2
     4     3     5   ar
     5     5     6   ar
     6     6     7    1
     7     7     8    1
     8     8     9    2
     9     8    10   am
    10    10    11    1
    11    11    12   ar
    12    12    13   ar
    13    13    14    1
    14    14    15   ar
    15    15    16   ar
    16    16    17   ar
    17    17    18    1
    18    18    19    1
    19    18    20    1
    20    18    21    1
    21    17    22   ar
    22    22    23   ar
    23    23    24    1
    24    13    25   ar
    25    25    26   ar
    26     6    27   ar
    27    27    28   ar
    28    28    29   ar
    29    29    30   ar
    30    30    31   ar
    31    31    32    1
    32    31    33   ar
    33    33    34    2
    34    33     2   ar
    35    30     5   ar
    36    26    11   ar
    37    23    14   ar
    38     1    35    1
    39     1    36    1
    40     1    37    1
    41     7    38    1
    42     7    39    1
    43    10    40    1
    44    15    41    1
    45    16    42    1
    46    22    43    1
    47    25    44    1
    48    27    45    1
    49    28    46    1
    50    29    47    1
    51    32    48    1
    52    32    49    1
    53    32    50    1
@<TRIPOS>MOLECULE
343300
 46 49 0 0 0
SMALL
GASTEIGER

@<TRIPOS>ATOM
      1 C          -6.2005    1.2653    2.3616 C.3     1  UNL1        0.0196
      2 N          -5.5662    0.8807    1.0815 N.ar    1  UNL1       -0.2634
      3 C          -4.6179   -0.0679    1.0371 C.ar    1  UNL1        0.2664
      4 O          -4.2506   -0.5866    2.1614 O.2     1  UNL1       -0.2668
      5 C          -4.0267   -0.4986   -0.1618 C.ar    1  UNL1        0.0937
      6 C          -3.1430   -1.4849   -0.3187 C.ar    1  UNL1        0.0735
      7 C          -2.3264   -2.3091    0.6256 C.3     1  UNL1        0.0681
      8 C          -0.9066   -2.0025    0.7281 C.2     1  UNL1        0.2245
      9 O          -0.3502   -2.0224    1.8917 O.2     1  UNL1       -0.2750
     10 N          -0.0947   -1.7035   -0.3873 N.am    1  UNL1       -0.2644
     11 C           1.3482   -1.5077   -0.3126 C.ar    1  UNL1        0.1649
     12 N           2.3084   -0.9109   -0.1935 N.ar    1  UNL1       -0.2245
     13 C           3.5764   -1.2197   -0.2009 C.ar    1  UNL1        0.0830
     14 C           4.7573   -0.3273   -0.1035 C.ar    1  UNL1        0.0361
     15 C           4.6300    0.9892   -0.4844 C.ar    1  UNL1       -0.0493
     16 C           5.7204    1.7971   -0.3225 C.ar    1  UNL1       -0.0493
     17 C           6.9162    1.3777    0.1901 C.ar    1  UNL1        0.0576
     18 C           8.0978    2.2658    0.3504 C.3     1  UNL1        0.4175
     19 F           9.0332    1.8429   -0.5874 F       1  UNL1       -0.1659
     20 F           8.6185    2.2668    1.6070 F       1  UNL1       -0.1659
     21 F           7.7175    3.5588    0.0157 F       1  UNL1       -0.1659
     22 C           7.0048    0.0397    0.5632 C.ar    1  UNL1       -0.0142
     23 C           5.9389   -0.8094    0.4208 C.ar    1  UNL1        0.1331
     24 F           6.0585   -2.1177    0.7982 F       1  UNL1       -0.2048
     25 C           3.8268   -2.6135   -0.4015 C.ar    1  UNL1        0.0050
     26 S           2.1740   -3.2580   -0.5490 S.2     1  UNL1       -0.0599
     27 N          -2.8031   -1.7720   -1.6212 N.ar    1  UNL1       -0.2121
     28 S          -3.7415   -0.6362   -2.5875 S.2     1  UNL1        0.0304
     29 C          -4.4985    0.1171   -1.2784 C.ar    1  UNL1        0.1164
     30 N          -5.5017    1.1170   -1.1854 N.ar    1  UNL1       -0.2892
     31 C          -5.8969    1.7031   -2.4672 C.3     1  UNL1        0.0172
     32 C          -6.0028    1.4696   -0.0274 C.ar    1  UNL1        0.3323
     33 O          -6.8963    2.3591    0.0196 O.2     1  UNL1       -0.2462
     34 H          -6.3082    0.2816    2.9095 H       1  UNL1        0.0458
     35 H          -7.2654    1.5268    2.1127 H       1  UNL1        0.0458
     36 H          -5.6571    2.0187    2.9162 H       1  UNL1        0.0458
     37 H          -2.7418   -2.1944    1.6788 H       1  UNL1        0.0423
     38 H          -2.4639   -3.4047    0.4362 H       1  UNL1        0.0423
     39 H          -0.5667   -1.6110   -1.3214 H       1  UNL1        0.1567
     40 H           3.7034    1.3715   -0.8998 H       1  UNL1        0.0625
     41 H           5.6793    2.8662   -0.6254 H       1  UNL1        0.0623
     42 H           7.9418   -0.3446    0.9938 H       1  UNL1        0.0652
     43 H           4.7583   -3.1400   -0.4704 H       1  UNL1        0.0716
     44 H          -6.2581    0.8951   -3.1531 H       1  UNL1        0.0457
     45 H          -5.0199    2.1421   -2.9480 H       1  UNL1        0.0457
     46 H          -6.7050    2.3909   -2.2893 H       1  UNL1        0.0457
@<TRIPOS>BOND
     1     1     2    1
     2     2     3   ar
     3     3     4    2
     4     3     5   ar
     5     5     6   ar
     6     6     7    1
     7     7     8    1
     8     8     9    2
     9     8    10   am
    10    10    11    1
    11    11    12   ar
    12    12    13   ar
    13    13    14    1
    14    14    15   ar
    15    15    16   ar
    16    16    17   ar
    17    17    18    1
    18    18    19    1
    19    18    20    1
    20    18    21    1
    21    17    22   ar
    22    22    23   ar
    23    23    24    1
    24    13    25   ar
    25    25    26   ar
    26     6    27   ar
    27    27    28   ar
    28    28    29   ar
    29    29    30   ar
    30    30    31    1
    31    30    32   ar
    32    32    33    2
    33    32     2   ar
    34    29     5   ar
    35    26    11   ar
    36    23    14   ar
    37     1    34    1
    38     1    35    1
    39     1    36    1
    40     7    37    1
    41     7    38    1
    42    10    39    1
    43    15    40    1
    44    16    41    1
    45    22    42    1
    46    25    43    1
    47    31    44    1
    48    31    45    1
    49    31    46    1
@<TRIPOS>MOLECULE
343232
 63 67 0 0 0
SMALL
GASTEIGER

@<TRIPOS>ATOM
      1 C           8.8688    1.0499   -2.3746 C.3     1  UNL1        0.0196
      2 N           8.2817    0.7529   -1.0860 N.ar    1  UNL1       -0.2635
      3 C           6.9937    0.3070   -1.0298 C.ar    1  UNL1        0.2643
      4 O           6.3397    0.1641   -2.0872 O.2     1  UNL1       -0.2668
      5 C           6.4091    0.0137    0.1777 C.ar    1  UNL1        0.0668
      6 C           5.0917   -0.4449    0.2816 C.ar    1  UNL1       -0.0243
      7 C           4.3126   -0.6285   -0.9619 C.3     1  UNL1        0.0503
      8 C           2.9886   -1.2275   -0.6036 C.2     1  UNL1        0.2230
      9 O           2.9306   -2.3845   -0.1582 O.2     1  UNL1       -0.2751
     10 N           1.7926   -0.4826   -0.7689 N.am    1  UNL1       -0.2644
     11 C           0.5402   -1.0462   -0.4388 C.ar    1  UNL1        0.1649
     12 N          -0.6658   -0.7061   -0.4320 N.ar    1  UNL1       -0.2246
     13 C          -1.6824   -1.4142   -0.0924 C.ar    1  UNL1        0.0802
     14 C          -3.0878   -0.9026   -0.1143 C.ar    1  UNL1        0.0010
     15 C          -3.3761    0.3906   -0.4941 C.ar    1  UNL1       -0.0523
     16 C          -4.7024    0.8434   -0.5170 C.ar    1  UNL1       -0.0577
     17 C          -5.7430    0.0211   -0.1660 C.ar    1  UNL1       -0.0442
     18 C          -7.1042    0.5264   -0.1739 C.3     1  UNL1       -0.0158
     19 C          -8.0951   -0.2235    0.6379 C.3     1  UNL1       -0.0462
     20 C          -9.3224    0.6110    0.8163 C.3     1  UNL1       -0.0525
     21 C          -9.8538    1.2380   -0.4192 C.3     1  UNL1       -0.0530
     22 C          -8.8575    1.5906   -1.4693 C.3     1  UNL1       -0.0525
     23 C          -7.7059    0.6236   -1.5928 C.3     1  UNL1       -0.0462
     24 C          -5.4329   -1.2596    0.2078 C.ar    1  UNL1       -0.0577
     25 C          -4.1273   -1.7215    0.2362 C.ar    1  UNL1       -0.0523
     26 C          -1.4076   -2.6929    0.3097 C.ar    1  UNL1        0.0049
     27 S           0.3895   -2.7823    0.1594 S.2     1  UNL1       -0.0599
     28 C           4.5519   -0.7204    1.5272 C.ar    1  UNL1       -0.0573
     29 C           5.3165   -0.5409    2.6419 C.ar    1  UNL1       -0.0595
     30 C           6.6124   -0.0940    2.5703 C.ar    1  UNL1       -0.0373
     31 C           7.1662    0.1853    1.3438 C.ar    1  UNL1        0.0586
     32 N           8.4438    0.6316    1.2499 N.ar    1  UNL1       -0.2962
     33 C           9.2149    0.8043    2.4569 C.3     1  UNL1        0.0167
     34 C           8.9671    0.9026    0.0430 C.ar    1  UNL1        0.3319
     35 O          10.1631    1.3167    0.0004 O.2     1  UNL1       -0.2463
     36 H           9.7736    1.6805   -2.2610 H       1  UNL1        0.0458
     37 H           8.1679    1.5591   -3.0420 H       1  UNL1        0.0458
     38 H           9.2186    0.1150   -2.8825 H       1  UNL1        0.0458
     39 H           4.8261   -1.3849   -1.6396 H       1  UNL1        0.0407
     40 H           4.1009    0.3106   -1.5072 H       1  UNL1        0.0407
     41 H           1.7772    0.4916   -1.1342 H       1  UNL1        0.1567
     42 H          -2.5595    1.0396   -0.7708 H       1  UNL1        0.0624
     43 H          -4.8295    1.8813   -0.8326 H       1  UNL1        0.0621
     44 H          -7.0910    1.6004    0.1823 H       1  UNL1        0.0349
     45 H          -7.7391   -0.5361    1.6366 H       1  UNL1        0.0271
     46 H          -8.4168   -1.1082    0.0138 H       1  UNL1        0.0271
     47 H          -9.1994    1.3302    1.6711 H       1  UNL1        0.0265
     48 H         -10.1287   -0.0983    1.1830 H       1  UNL1        0.0265
     49 H         -10.3512    2.2029   -0.1022 H       1  UNL1        0.0265
     50 H         -10.7060    0.6575   -0.8824 H       1  UNL1        0.0265
     51 H          -9.3870    1.5930   -2.4527 H       1  UNL1        0.0265
     52 H          -8.4092    2.6049   -1.3195 H       1  UNL1        0.0265
     53 H          -8.0857   -0.3749   -1.8720 H       1  UNL1        0.0271
     54 H          -6.9730    1.0593   -2.2970 H       1  UNL1        0.0271
     55 H          -6.2385   -1.9172    0.4867 H       1  UNL1        0.0621
     56 H          -3.9349   -2.7480    0.5406 H       1  UNL1        0.0624
     57 H          -2.0769   -3.5605    0.6705 H       1  UNL1        0.0716
     58 H           3.5254   -1.0621    1.5555 H       1  UNL1        0.0621
     59 H           4.8853   -0.7602    3.6259 H       1  UNL1        0.0618
     60 H           7.2401    0.0546    3.4448 H       1  UNL1        0.0638
     61 H          10.1461    1.3861    2.1867 H       1  UNL1        0.0457
     62 H           8.7030    1.4417    3.2101 H       1  UNL1        0.0457
     63 H           9.5517   -0.1584    2.9081 H       1  UNL1        0.0457
@<TRIPOS>BOND
     1     1     2    1
     2     2     3   ar
     3     3     4    2
     4     3     5   ar
     5     5     6   ar
     6     6     7    1
     7     7     8    1
     8     8     9    2
     9     8    10   am
    10    10    11    1
    11    11    12   ar
    12    12    13   ar
    13    13    14    1
    14    14    15   ar
    15    15    16   ar
    16    16    17   ar
    17    17    18    1
    18    18    19    1
    19    19    20    1
    20    20    21    1
    21    21    22    1
    22    22    23    1
    23    17    24   ar
    24    24    25   ar
    25    13    26   ar
    26    26    27   ar
    27     6    28   ar
    28    28    29   ar
    29    29    30   ar
    30    30    31   ar
    31    31    32   ar
    32    32    33    1
    33    32    34   ar
    34    34    35    2
    35    34     2   ar
    36    31     5   ar
    37    27    11   ar
    38    25    14   ar
    39    23    18    1
    40     1    36    1
    41     1    37    1
    42     1    38    1
    43     7    39    1
    44     7    40    1
    45    10    41    1
    46    15    42    1
    47    16    43    1
    48    18    44    1
    49    19    45    1
    50    19    46    1
    51    20    47    1
    52    20    48    1
    53    21    49    1
    54    21    50    1
    55    22    51    1
    56    22    52    1
    57    23    53    1
    58    23    54    1
    59    24    55    1
    60    25    56    1
    61    26    57    1
    62    28    58    1
    63    29    59    1
    64    30    60    1
    65    33    61    1
    66    33    62    1
    67    33    63    1
@<TRIPOS>MOLECULE
343243
 50 53 0 0 0
SMALL
GASTEIGER

@<TRIPOS>ATOM
      1 C          -3.4301    2.1986   -2.0091 C.3     1  UNL1        0.0196
      2 N          -3.7574    1.2087   -1.0197 N.ar    1  UNL1       -0.2635
      3 C          -2.9788    1.1490    0.0818 C.ar    1  UNL1        0.2643
      4 O          -2.0127    1.9163    0.2460 O.2     1  UNL1       -0.2668
      5 C          -3.2695    0.2133    1.0410 C.ar    1  UNL1        0.0668
      6 C          -2.4961    0.1302    2.1759 C.ar    1  UNL1       -0.0243
      7 C          -1.3465    1.0103    2.3978 C.3     1  UNL1        0.0503
      8 C          -0.1278    0.6569    1.6508 C.2     1  UNL1        0.2230
      9 O           0.9045    1.3572    1.7266 O.2     1  UNL1       -0.2751
     10 N          -0.0711   -0.4892    0.8153 N.am    1  UNL1       -0.2644
     11 C           1.0985   -0.8378    0.0937 C.ar    1  UNL1        0.1649
     12 N           2.2712   -0.5394   -0.1637 N.ar    1  UNL1       -0.2246
     13 C           3.1235   -1.0910   -0.9032 C.ar    1  UNL1        0.0802
     14 C           4.5094   -0.5980   -1.1013 C.ar    1  UNL1        0.0016
     15 C           5.3896   -1.2445   -1.9206 C.ar    1  UNL1       -0.0511
     16 C           6.6889   -0.7760   -2.0972 C.ar    1  UNL1       -0.0422
     17 C           7.1228    0.3569   -1.4474 C.ar    1  UNL1        0.0526
     18 CL          8.7711    0.9615   -1.6638 Cl      1  UNL1       -0.0830
     19 C           6.2261    0.9943   -0.6281 C.ar    1  UNL1        0.0737
     20 C           6.7303    2.2294    0.0697 C.3     1  UNL1        0.4188
     21 F           7.8064    1.8510    0.8541 F       1  UNL1       -0.1658
     22 F           7.1363    3.1691   -0.8689 F       1  UNL1       -0.1658
     23 F           5.7260    2.7398    0.8628 F       1  UNL1       -0.1658
     24 C           4.9399    0.5365   -0.4490 C.ar    1  UNL1       -0.0395
     25 C           2.7305   -2.2881   -1.6061 C.ar    1  UNL1        0.0049
     26 S           1.0108   -2.3758   -0.9770 S.2     1  UNL1       -0.0599
     27 C          -2.8271   -0.8393    3.1384 C.ar    1  UNL1       -0.0573
     28 C          -3.8957   -1.6739    2.9383 C.ar    1  UNL1       -0.0595
     29 C          -4.6519   -1.5704    1.7961 C.ar    1  UNL1       -0.0373
     30 C          -4.3735   -0.6360    0.8156 C.ar    1  UNL1        0.0586
     31 N          -5.1308   -0.5504   -0.2945 N.ar    1  UNL1       -0.2962
     32 C          -6.2539   -1.4460   -0.4690 C.3     1  UNL1        0.0167
     33 C          -4.8031    0.3817   -1.2011 C.ar    1  UNL1        0.3319
     34 O          -5.4947    0.4825   -2.2479 O.2     1  UNL1       -0.2463
     35 H          -3.7934    3.2175   -1.7263 H       1  UNL1        0.0458
     36 H          -3.9524    1.9301   -2.9458 H       1  UNL1        0.0458
     37 H          -2.3327    2.2239   -2.1730 H       1  UNL1        0.0458
     38 H          -1.0429    0.8458    3.4900 H       1  UNL1        0.0407
     39 H          -1.5724    2.0990    2.4292 H       1  UNL1        0.0407
     40 H          -0.9531   -1.0556    0.7719 H       1  UNL1        0.1567
     41 H           5.0945   -2.1563   -2.4658 H       1  UNL1        0.0625
     42 H           7.3759   -1.2980   -2.7492 H       1  UNL1        0.0632
     43 H           4.2640    1.0930    0.2237 H       1  UNL1        0.0630
     44 H           3.2263   -2.9378   -2.2725 H       1  UNL1        0.0716
     45 H          -2.2016   -0.8826    4.0211 H       1  UNL1        0.0621
     46 H          -4.1170   -2.4080    3.7055 H       1  UNL1        0.0618
     47 H          -5.5135   -2.2338    1.6169 H       1  UNL1        0.0638
     48 H          -6.9406   -1.4389    0.4232 H       1  UNL1        0.0457
     49 H          -5.9004   -2.4626   -0.6776 H       1  UNL1        0.0457
     50 H          -6.9053   -1.1234   -1.3086 H       1  UNL1        0.0457
@<TRIPOS>BOND
     1     1     2    1
     2     2     3   ar
     3     3     4    2
     4     3     5   ar
     5     5     6   ar
     6     6     7    1
     7     7     8    1
     8     8     9    2
     9     8    10   am
    10    10    11    1
    11    11    12   ar
    12    12    13   ar
    13    13    14    1
    14    14    15   ar
    15    15    16   ar
    16    16    17   ar
    17    17    18    1
    18    17    19   ar
    19    19    20    1
    20    20    21    1
    21    20    22    1
    22    20    23    1
    23    19    24   ar
    24    13    25   ar
    25    25    26   ar
    26     6    27   ar
    27    27    28   ar
    28    28    29   ar
    29    29    30   ar
    30    30    31   ar
    31    31    32    1
    32    31    33   ar
    33    33    34    2
    34    33     2   ar
    35    30     5   ar
    36    26    11   ar
    37    24    14   ar
    38     1    35    1
    39     1    36    1
    40     1    37    1
    41     7    38    1
    42     7    39    1
    43    10    40    1
    44    15    41    1
    45    16    42    1
    46    24    43    1
    47    25    44    1
    48    27    45    1
    49    28    46    1
    50    29    47    1
    51    32    48    1
    52    32    49    1
    53    32    50    1
@<TRIPOS>MOLECULE
343226
 47 50 0 0 0
SMALL
GASTEIGER

@<TRIPOS>ATOM
      1 C          -5.8821   -1.5769   -2.3671 C.3     1  UNL1        0.0196
      2 N          -5.3092   -0.7921   -1.2642 N.ar    1  UNL1       -0.2635
      3 C          -3.9989   -0.9298   -0.9500 C.ar    1  UNL1        0.2643
      4 O          -3.3610   -1.7249   -1.6450 O.2     1  UNL1       -0.2668
      5 C          -3.3734   -0.2464    0.0725 C.ar    1  UNL1        0.0668
      6 C          -2.0349   -0.3930    0.3937 C.ar    1  UNL1       -0.0243
      7 C          -1.2379   -1.2604   -0.4540 C.3     1  UNL1        0.0503
      8 C           0.1989   -1.4001   -0.0957 C.2     1  UNL1        0.2230
      9 O           0.4870   -2.2971    0.7737 O.2     1  UNL1       -0.2751
     10 N           1.2011   -0.6055   -0.6666 N.am    1  UNL1       -0.2644
     11 C           2.5691   -0.7738   -0.3650 C.ar    1  UNL1        0.1649
     12 N           3.6124   -0.1691   -0.3288 N.ar    1  UNL1       -0.2246
     13 C           4.8173   -0.6397   -0.1028 C.ar    1  UNL1        0.0803
     14 C           6.0394    0.2057   -0.0403 C.ar    1  UNL1        0.0024
     15 C           5.9166    1.5961   -0.1925 C.ar    1  UNL1       -0.0511
     16 C           7.0467    2.3764   -0.1658 C.ar    1  UNL1       -0.0413
     17 C           8.2677    1.7518    0.0106 C.ar    1  UNL1        0.0593
     18 CL          9.6932    2.7547    0.0480 Cl      1  UNL1       -0.0820
     19 C           8.3900    0.3957    0.1575 C.ar    1  UNL1        0.0599
     20 CL          9.9465   -0.3864    0.3796 Cl      1  UNL1       -0.0820
     21 C           7.2513   -0.3995    0.1320 C.ar    1  UNL1       -0.0328
     22 C           4.8789   -2.0096    0.1244 C.ar    1  UNL1        0.0049
     23 S           3.2157   -2.5207   -0.0006 S.2     1  UNL1       -0.0599
     24 C          -1.5525    0.3502    1.4484 C.ar    1  UNL1       -0.0573
     25 C          -2.3548    1.2150    2.1674 C.ar    1  UNL1       -0.0595
     26 C          -3.6966    1.3695    1.8482 C.ar    1  UNL1       -0.0373
     27 C          -4.1753    0.6206    0.7927 C.ar    1  UNL1        0.0586
     28 N          -5.4948    0.7581    0.4730 N.ar    1  UNL1       -0.2962
     29 C          -6.3403    1.6700    1.2073 C.3     1  UNL1        0.0167
     30 C          -6.0516    0.0581   -0.5432 C.ar    1  UNL1        0.3319
     31 O          -7.2767    0.1724   -0.8550 O.2     1  UNL1       -0.2463
     32 H          -6.2180   -2.5669   -2.0035 H       1  UNL1        0.0458
     33 H          -5.0483   -1.7633   -3.0922 H       1  UNL1        0.0458
     34 H          -6.6338   -0.9731   -2.8507 H       1  UNL1        0.0458
     35 H          -1.6306   -2.3174   -0.3625 H       1  UNL1        0.0407
     36 H          -1.2099   -0.9444   -1.5280 H       1  UNL1        0.0407
     37 H           0.8854    0.1426   -1.3432 H       1  UNL1        0.1567
     38 H           4.9640    2.0663   -0.3240 H       1  UNL1        0.0625
     39 H           7.0096    3.4690   -0.2776 H       1  UNL1        0.0633
     40 H           7.3855   -1.4606    0.2472 H       1  UNL1        0.0639
     41 H           5.7460   -2.6629    0.3377 H       1  UNL1        0.0716
     42 H          -0.4919    0.2563    1.7272 H       1  UNL1        0.0621
     43 H          -1.9902    1.8181    3.0097 H       1  UNL1        0.0618
     44 H          -4.3650    2.0368    2.3856 H       1  UNL1        0.0638
     45 H          -7.3148    1.7596    0.6606 H       1  UNL1        0.0457
     46 H          -6.5704    1.2738    2.2082 H       1  UNL1        0.0457
     47 H          -5.9093    2.6968    1.2124 H       1  UNL1        0.0457
@<TRIPOS>BOND
     1     1     2    1
     2     2     3   ar
     3     3     4    2
     4     3     5   ar
     5     5     6   ar
     6     6     7    1
     7     7     8    1
     8     8     9    2
     9     8    10   am
    10    10    11    1
    11    11    12   ar
    12    12    13   ar
    13    13    14    1
    14    14    15   ar
    15    15    16   ar
    16    16    17   ar
    17    17    18    1
    18    17    19   ar
    19    19    20    1
    20    19    21   ar
    21    13    22   ar
    22    22    23   ar
    23     6    24   ar
    24    24    25   ar
    25    25    26   ar
    26    26    27   ar
    27    27    28   ar
    28    28    29    1
    29    28    30   ar
    30    30    31    2
    31    30     2   ar
    32    27     5   ar
    33    23    11   ar
    34    21    14   ar
    35     1    32    1
    36     1    33    1
    37     1    34    1
    38     7    35    1
    39     7    36    1
    40    10    37    1
    41    15    38    1
    42    16    39    1
    43    21    40    1
    44    22    41    1
    45    24    42    1
    46    25    43    1
    47    26    44    1
    48    29    45    1
    49    29    46    1
    50    29    47    1
@<TRIPOS>MOLECULE
343242
 50 53 0 0 0
SMALL
GASTEIGER

@<TRIPOS>ATOM
      1 C          -3.3179    2.3495   -1.9148 C.3     1  UNL1        0.0196
      2 N          -3.6784    1.3220   -0.9886 N.ar    1  UNL1       -0.2635
      3 C          -2.9066    1.1427    0.1128 C.ar    1  UNL1        0.2643
      4 O          -1.9020    1.8467    0.3283 O.2     1  UNL1       -0.2668
      5 C          -3.2450    0.1586    1.0111 C.ar    1  UNL1        0.0668
      6 C          -2.4771   -0.0373    2.1342 C.ar    1  UNL1       -0.0243
      7 C          -1.2814    0.7577    2.4203 C.3     1  UNL1        0.0503
      8 C          -0.0815    0.3903    1.6411 C.2     1  UNL1        0.2230
      9 O           0.8847    1.1864    1.6053 O.2     1  UNL1       -0.2751
     10 N           0.0411   -0.8109    0.9310 N.am    1  UNL1       -0.2644
     11 C           1.2218   -1.1428    0.1872 C.ar    1  UNL1        0.1649
     12 N           2.3010   -0.7520   -0.0863 N.ar    1  UNL1       -0.2246
     13 C           3.2292   -1.2571   -0.8209 C.ar    1  UNL1        0.0802
     14 C           4.5411   -0.6057   -1.0338 C.ar    1  UNL1        0.0016
     15 C           5.4833   -1.1932   -1.8279 C.ar    1  UNL1       -0.0498
     16 C           6.7124   -0.5889   -2.0203 C.ar    1  UNL1       -0.0253
     17 C           7.0470    0.6105   -1.4360 C.ar    1  UNL1        0.1351
     18 F           8.2682    1.1904   -1.6387 F       1  UNL1       -0.2049
     19 C           6.0903    1.1942   -0.6376 C.ar    1  UNL1        0.0905
     20 C           6.4369    2.4929    0.0069 C.3     1  UNL1        0.4201
     21 F           7.5359    2.3822    0.8375 F       1  UNL1       -0.1658
     22 F           6.7611    3.4400   -0.9715 F       1  UNL1       -0.1658
     23 F           5.3590    2.9486    0.7170 F       1  UNL1       -0.1658
     24 C           4.8629    0.5957   -0.4425 C.ar    1  UNL1       -0.0381
     25 C           2.9687   -2.4830   -1.4277 C.ar    1  UNL1        0.0049
     26 S           1.2549   -2.7537   -0.7855 S.2     1  UNL1       -0.0599
     27 C          -2.8805   -1.0559    3.0105 C.ar    1  UNL1       -0.0573
     28 C          -3.9791   -1.8299    2.7812 C.ar    1  UNL1       -0.0595
     29 C          -4.7142   -1.5998    1.6497 C.ar    1  UNL1       -0.0373
     30 C          -4.3765   -0.6139    0.7425 C.ar    1  UNL1        0.0586
     31 N          -5.1312   -0.4153   -0.3650 N.ar    1  UNL1       -0.2962
     32 C          -6.2957   -1.2442   -0.5968 C.3     1  UNL1        0.0167
     33 C          -4.7568    0.5599   -1.2113 C.ar    1  UNL1        0.3319
     34 O          -5.4352    0.7641   -2.2403 O.2     1  UNL1       -0.2463
     35 H          -3.6111    3.3474   -1.5070 H       1  UNL1        0.0458
     36 H          -3.8469    2.1798   -2.8634 H       1  UNL1        0.0458
     37 H          -2.2289    2.3137   -2.1209 H       1  UNL1        0.0458
     38 H          -0.9844    0.4900    3.4915 H       1  UNL1        0.0407
     39 H          -1.4285    1.8483    2.5187 H       1  UNL1        0.0407
     40 H          -0.7865   -1.4751    0.9658 H       1  UNL1        0.1567
     41 H           5.3071   -2.1492   -2.3355 H       1  UNL1        0.0625
     42 H           7.4362   -1.0875   -2.6591 H       1  UNL1        0.0646
     43 H           4.1460    1.1050    0.1997 H       1  UNL1        0.0630
     44 H           3.4701   -3.1587   -2.0642 H       1  UNL1        0.0716
     45 H          -2.2609   -1.1966    3.8939 H       1  UNL1        0.0621
     46 H          -4.2404   -2.5975    3.4903 H       1  UNL1        0.0618
     47 H          -5.6150   -2.2019    1.4175 H       1  UNL1        0.0638
     48 H          -6.9985   -1.2617    0.2625 H       1  UNL1        0.0457
     49 H          -5.9936   -2.2609   -0.9137 H       1  UNL1        0.0457
     50 H          -6.9052   -0.8439   -1.4484 H       1  UNL1        0.0457
@<TRIPOS>BOND
     1     1     2    1
     2     2     3   ar
     3     3     4    2
     4     3     5   ar
     5     5     6   ar
     6     6     7    1
     7     7     8    1
     8     8     9    2
     9     8    10   am
    10    10    11    1
    11    11    12   ar
    12    12    13   ar
    13    13    14    1
    14    14    15   ar
    15    15    16   ar
    16    16    17   ar
    17    17    18    1
    18    17    19   ar
    19    19    20    1
    20    20    21    1
    21    20    22    1
    22    20    23    1
    23    19    24   ar
    24    13    25   ar
    25    25    26   ar
    26     6    27   ar
    27    27    28   ar
    28    28    29   ar
    29    29    30   ar
    30    30    31   ar
    31    31    32    1
    32    31    33   ar
    33    33    34    2
    34    33     2   ar
    35    30     5   ar
    36    26    11   ar
    37    24    14   ar
    38     1    35    1
    39     1    36    1
    40     1    37    1
    41     7    38    1
    42     7    39    1
    43    10    40    1
    44    15    41    1
    45    16    42    1
    46    24    43    1
    47    25    44    1
    48    27    45    1
    49    28    46    1
    50    29    47    1
    51    32    48    1
    52    32    49    1
    53    32    50    1
@<TRIPOS>MOLECULE
343280
 47 50 0 0 0
SMALL
GASTEIGER

@<TRIPOS>ATOM
      1 C          -5.0910    0.1394    2.8368 C.3     1  UNL1        0.0196
      2 N          -4.7395    0.1799    1.4364 N.ar    1  UNL1       -0.2633
      3 C          -4.0600   -0.7770    0.8009 C.ar    1  UNL1        0.2675
      4 O          -3.6700   -1.8135    1.4188 O.2     1  UNL1       -0.2667
      5 C          -3.7347   -0.7297   -0.5423 C.ar    1  UNL1        0.1062
      6 C          -3.0817   -1.5217   -1.4302 C.ar    1  UNL1        0.0137
      7 C          -2.4076   -2.8027   -1.2347 C.3     1  UNL1        0.0532
      8 C          -1.0355   -2.7027   -0.6772 C.2     1  UNL1        0.2231
      9 O          -0.5930   -3.6624    0.0554 O.2     1  UNL1       -0.2751
     10 N          -0.1873   -1.6235   -0.9058 N.am    1  UNL1       -0.2644
     11 C           1.1532   -1.5381   -0.4096 C.ar    1  UNL1        0.1649
     12 N           2.0289   -0.6522   -0.3382 N.ar    1  UNL1       -0.2246
     13 C           3.2422   -0.7953    0.0936 C.ar    1  UNL1        0.0802
     14 C           4.2472    0.3155    0.1788 C.ar    1  UNL1        0.0016
     15 C           3.9176    1.5990   -0.1826 C.ar    1  UNL1       -0.0498
     16 C           4.8287    2.6349   -0.1420 C.ar    1  UNL1       -0.0253
     17 C           6.1241    2.3814    0.2731 C.ar    1  UNL1        0.1351
     18 F           7.0781    3.3710    0.3135 F       1  UNL1       -0.2049
     19 C           6.4759    1.1035    0.6382 C.ar    1  UNL1        0.0905
     20 C           7.8529    0.7847    1.0719 C.3     1  UNL1        0.4201
     21 F           8.1969    1.5268    2.1558 F       1  UNL1       -0.1658
     22 F           7.9846   -0.5803    1.4062 F       1  UNL1       -0.1658
     23 F           8.7729    1.0444    0.0436 F       1  UNL1       -0.1658
     24 C           5.5231    0.0728    0.5861 C.ar    1  UNL1       -0.0381
     25 C           3.5680   -2.0650    0.5110 C.ar    1  UNL1        0.0049
     26 S           2.0219   -2.9509    0.2233 S.2     1  UNL1       -0.0599
     27 C          -3.1141   -0.8557   -2.6788 C.ar    1  UNL1        0.0988
     28 O          -3.7566    0.2477   -2.4758 O.2     1  UNL1       -0.4460
     29 C          -4.1527    0.3890   -1.2408 C.ar    1  UNL1        0.2171
     30 N          -4.8393    1.3408   -0.5696 N.ar    1  UNL1       -0.2667
     31 C          -5.2603    2.5135   -1.3285 C.3     1  UNL1        0.0194
     32 C          -5.1355    1.2641    0.7230 C.ar    1  UNL1        0.3341
     33 O          -5.7799    2.1763    1.3157 O.2     1  UNL1       -0.2462
     34 H          -6.1789   -0.1009    2.9662 H       1  UNL1        0.0458
     35 H          -4.9356    1.1873    3.2348 H       1  UNL1        0.0458
     36 H          -4.4989   -0.6088    3.4178 H       1  UNL1        0.0458
     37 H          -2.9821   -3.4865   -0.5636 H       1  UNL1        0.0408
     38 H          -2.3240   -3.3721   -2.2087 H       1  UNL1        0.0408
     39 H          -0.5184   -0.8046   -1.4693 H       1  UNL1        0.1567
     40 H           2.8810    1.7840   -0.5085 H       1  UNL1        0.0625
     41 H           4.5513    3.6468   -0.4354 H       1  UNL1        0.0646
     42 H           5.8025   -0.9486    0.8777 H       1  UNL1        0.0630
     43 H           4.4964   -2.5054    0.9269 H       1  UNL1        0.0716
     44 H          -2.6666   -1.2511   -3.6024 H       1  UNL1        0.1033
     45 H          -4.3499    3.0563   -1.6800 H       1  UNL1        0.0458
     46 H          -5.8331    2.1800   -2.2093 H       1  UNL1        0.0458
     47 H          -5.8211    3.2097   -0.6727 H       1  UNL1        0.0458
@<TRIPOS>BOND
     1     1     2    1
     2     2     3   ar
     3     3     4    2
     4     3     5   ar
     5     5     6   ar
     6     6     7    1
     7     7     8    1
     8     8     9    2
     9     8    10   am
    10    10    11    1
    11    11    12   ar
    12    12    13   ar
    13    13    14    1
    14    14    15   ar
    15    15    16   ar
    16    16    17   ar
    17    17    18    1
    18    17    19   ar
    19    19    20    1
    20    20    21    1
    21    20    22    1
    22    20    23    1
    23    19    24   ar
    24    13    25   ar
    25    25    26   ar
    26     6    27   ar
    27    27    28   ar
    28    28    29   ar
    29    29    30   ar
    30    30    31    1
    31    30    32   ar
    32    32    33    2
    33    32     2   ar
    34    29     5   ar
    35    26    11   ar
    36    24    14   ar
    37     1    34    1
    38     1    35    1
    39     1    36    1
    40     7    37    1
    41     7    38    1
    42    10    39    1
    43    15    40    1
    44    16    41    1
    45    24    42    1
    46    25    43    1
    47    27    44    1
    48    31    45    1
    49    31    46    1
    50    31    47    1
@<TRIPOS>MOLECULE
343253
 50 53 0 0 0
SMALL
GASTEIGER

@<TRIPOS>ATOM
      1 C          -3.7964   -2.9139   -0.3398 C.3     1  UNL1        0.0196
      2 N          -4.2406   -1.5667   -0.0593 N.ar    1  UNL1       -0.2635
      3 C          -3.4917   -0.5502   -0.5755 C.ar    1  UNL1        0.2643
      4 O          -2.4732   -0.8293   -1.2557 O.2     1  UNL1       -0.2668
      5 C          -3.8186    0.7719   -0.3736 C.ar    1  UNL1        0.0668
      6 C          -3.0737    1.7972   -0.8887 C.ar    1  UNL1       -0.0243
      7 C          -1.8599    1.5562   -1.6975 C.3     1  UNL1        0.0503
      8 C          -0.7270    1.1720   -0.8142 C.2     1  UNL1        0.2230
      9 O          -0.8552    1.1133    0.4427 O.2     1  UNL1       -0.2751
     10 N           0.5265    0.8625   -1.3747 N.am    1  UNL1       -0.2644
     11 C           1.6645    0.4820   -0.5589 C.ar    1  UNL1        0.1649
     12 N           2.7923    0.1756   -0.6912 N.ar    1  UNL1       -0.2245
     13 C           3.6868   -0.1442    0.2208 C.ar    1  UNL1        0.0830
     14 C           5.0930   -0.5120   -0.1367 C.ar    1  UNL1        0.0368
     15 C           5.5054   -0.5325   -1.4474 C.ar    1  UNL1       -0.0471
     16 C           6.7905   -0.8640   -1.8253 C.ar    1  UNL1       -0.0251
     17 C           7.7135   -1.1911   -0.8666 C.ar    1  UNL1        0.1379
     18 F           8.9789   -1.5187   -1.2231 F       1  UNL1       -0.2048
     19 C           7.3217   -1.1768    0.4512 C.ar    1  UNL1        0.1255
     20 C           8.2932   -1.5224    1.4957 C.3     1  UNL1        0.4227
     21 F           7.6766   -1.4402    2.7257 F       1  UNL1       -0.1657
     22 F           9.4036   -0.6849    1.4463 F       1  UNL1       -0.1657
     23 F           8.7053   -2.8376    1.3442 F       1  UNL1       -0.1657
     24 C           6.0035   -0.8351    0.8175 C.ar    1  UNL1        0.1470
     25 F           5.7001   -0.8452    2.1363 F       1  UNL1       -0.2041
     26 C           3.2211   -0.1105    1.5066 C.ar    1  UNL1        0.0050
     27 S           1.4766    0.3965    1.2747 S.2     1  UNL1       -0.0599
     28 C          -3.4743    3.1246   -0.6391 C.ar    1  UNL1       -0.0573
     29 C          -4.5960    3.3535    0.1108 C.ar    1  UNL1       -0.0595
     30 C          -5.3483    2.3246    0.6309 C.ar    1  UNL1       -0.0373
     31 C          -4.9695    1.0211    0.3955 C.ar    1  UNL1        0.0586
     32 N          -5.7018   -0.0054    0.9008 N.ar    1  UNL1       -0.2962
     33 C          -6.8702    0.3349    1.6803 C.3     1  UNL1        0.0167
     34 C          -5.3139   -1.2671    0.6573 C.ar    1  UNL1        0.3319
     35 O          -6.0163   -2.2027    1.1414 O.2     1  UNL1       -0.2463
     36 H          -4.6868   -3.5800   -0.4098 H       1  UNL1        0.0458
     37 H          -3.2005   -2.9856   -1.2599 H       1  UNL1        0.0458
     38 H          -3.1962   -3.3109    0.5308 H       1  UNL1        0.0458
     39 H          -1.9489    0.8035   -2.4919 H       1  UNL1        0.0407
     40 H          -1.5635    2.5544   -2.1976 H       1  UNL1        0.0407
     41 H           0.6405    0.9077   -2.4018 H       1  UNL1        0.1567
     42 H           4.7740   -0.2741   -2.2012 H       1  UNL1        0.0626
     43 H           7.1177   -0.8815   -2.8501 H       1  UNL1        0.0646
     44 H           3.6596   -0.3081    2.4934 H       1  UNL1        0.0716
     45 H          -2.8568    3.8863   -1.0640 H       1  UNL1        0.0621
     46 H          -4.8870    4.3633    0.2914 H       1  UNL1        0.0618
     47 H          -6.2378    2.5132    1.2255 H       1  UNL1        0.0638
     48 H          -6.6083    0.9863    2.5612 H       1  UNL1        0.0457
     49 H          -7.5598    0.9423    1.0619 H       1  UNL1        0.0457
     50 H          -7.3729   -0.5522    2.0994 H       1  UNL1        0.0457
@<TRIPOS>BOND
     1     1     2    1
     2     2     3   ar
     3     3     4    2
     4     3     5   ar
     5     5     6   ar
     6     6     7    1
     7     7     8    1
     8     8     9    2
     9     8    10   am
    10    10    11    1
    11    11    12   ar
    12    12    13   ar
    13    13    14    1
    14    14    15   ar
    15    15    16   ar
    16    16    17   ar
    17    17    18    1
    18    17    19   ar
    19    19    20    1
    20    20    21    1
    21    20    22    1
    22    20    23    1
    23    19    24   ar
    24    24    25    1
    25    13    26   ar
    26    26    27   ar
    27     6    28   ar
    28    28    29   ar
    29    29    30   ar
    30    30    31   ar
    31    31    32   ar
    32    32    33    1
    33    32    34   ar
    34    34    35    2
    35    34     2   ar
    36    31     5   ar
    37    27    11   ar
    38    24    14   ar
    39     1    36    1
    40     1    37    1
    41     1    38    1
    42     7    39    1
    43     7    40    1
    44    10    41    1
    45    15    42    1
    46    16    43    1
    47    26    44    1
    48    28    45    1
    49    29    46    1
    50    30    47    1
    51    33    48    1
    52    33    49    1
    53    33    50    1
@<TRIPOS>MOLECULE
343309
 49 52 0 0 0
SMALL
GASTEIGER

@<TRIPOS>ATOM
      1 C          -4.3049    2.9281    0.5879 C.3     1  UNL1        0.0196
      2 N          -4.5099    1.5959    0.0589 N.ar    1  UNL1       -0.2634
      3 C          -3.7397    0.5935    0.5598 C.ar    1  UNL1        0.2659
      4 O          -2.9044    0.8799    1.4446 O.2     1  UNL1       -0.2668
      5 C          -3.8436   -0.7013    0.1381 C.ar    1  UNL1        0.0857
      6 C          -3.0555   -1.7017    0.6618 C.ar    1  UNL1       -0.0213
      7 C          -2.0542   -1.4304    1.6790 C.3     1  UNL1        0.0504
      8 C          -0.8037   -0.8242    1.1599 C.2     1  UNL1        0.2230
      9 O          -0.6942   -0.6185   -0.0593 O.2     1  UNL1       -0.2751
     10 N           0.2660   -0.4752    2.0205 N.am    1  UNL1       -0.2644
     11 C           1.4885    0.1155    1.5263 C.ar    1  UNL1        0.1649
     12 N           2.5470   -0.1183    1.1260 N.ar    1  UNL1       -0.2245
     13 C           3.5129    0.6820    0.7238 C.ar    1  UNL1        0.0830
     14 C           4.8340    0.1738    0.2312 C.ar    1  UNL1        0.0368
     15 C           5.0847   -1.1721    0.1726 C.ar    1  UNL1       -0.0471
     16 C           6.2849   -1.6632   -0.2723 C.ar    1  UNL1       -0.0251
     17 C           7.2979   -0.7960   -0.6831 C.ar    1  UNL1        0.1379
     18 F           8.4806   -1.2689   -1.1213 F       1  UNL1       -0.2048
     19 C           7.0795    0.5391   -0.6365 C.ar    1  UNL1        0.1255
     20 C           8.1048    1.5262   -1.0542 C.3     1  UNL1        0.4227
     21 F           7.6336    2.8128   -0.9098 F       1  UNL1       -0.1657
     22 F           9.2209    1.3659   -0.2285 F       1  UNL1       -0.1657
     23 F           8.4613    1.2753   -2.3598 F       1  UNL1       -0.1657
     24 C           5.8375    1.0050   -0.1751 C.ar    1  UNL1        0.1470
     25 F           5.6599    2.3660   -0.1442 F       1  UNL1       -0.2041
     26 C           3.2139    1.9708    0.7925 C.ar    1  UNL1        0.0050
     27 S           1.5188    1.9984    1.4461 S.2     1  UNL1       -0.0599
     28 C          -3.2746   -2.9853    0.1378 C.ar    1  UNL1       -0.0391
     29 C          -4.2242   -3.1991   -0.8378 C.ar    1  UNL1        0.0302
     30 N          -4.9677   -2.1920   -1.3175 N.ar    1  UNL1       -0.2370
     31 C          -4.7922   -0.9623   -0.8487 C.ar    1  UNL1        0.1497
     32 N          -5.5505    0.0488   -1.3359 N.ar    1  UNL1       -0.2808
     33 C          -6.5345   -0.2751   -2.3725 C.3     1  UNL1        0.0181
     34 C          -5.3963    1.2977   -0.8769 C.ar    1  UNL1        0.3330
     35 O          -6.1064    2.2280   -1.3376 O.2     1  UNL1       -0.2462
     36 H          -3.2576    3.2049    0.3829 H       1  UNL1        0.0458
     37 H          -5.0228    3.5986    0.0753 H       1  UNL1        0.0458
     38 H          -4.4825    2.8885    1.6963 H       1  UNL1        0.0458
     39 H          -1.6980   -2.4599    2.0293 H       1  UNL1        0.0407
     40 H          -2.4113   -0.9966    2.6326 H       1  UNL1        0.0407
     41 H           0.1283   -0.6673    3.0461 H       1  UNL1        0.1567
     42 H           4.2833   -1.8550    0.4974 H       1  UNL1        0.0626
     43 H           6.4822   -2.7051   -0.3185 H       1  UNL1        0.0646
     44 H           3.7226    2.9835    0.5589 H       1  UNL1        0.0716
     45 H          -2.6742   -3.7933    0.5263 H       1  UNL1        0.0636
     46 H          -4.3825   -4.1952   -1.2328 H       1  UNL1        0.0830
     47 H          -7.2351   -1.0511   -1.9625 H       1  UNL1        0.0458
     48 H          -7.1559    0.6314   -2.5217 H       1  UNL1        0.0458
     49 H          -6.0668   -0.6026   -3.3042 H       1  UNL1        0.0458
@<TRIPOS>BOND
     1     1     2    1
     2     2     3   ar
     3     3     4    2
     4     3     5   ar
     5     5     6   ar
     6     6     7    1
     7     7     8    1
     8     8     9    2
     9     8    10   am
    10    10    11    1
    11    11    12   ar
    12    12    13   ar
    13    13    14    1
    14    14    15   ar
    15    15    16   ar
    16    16    17   ar
    17    17    18    1
    18    17    19   ar
    19    19    20    1
    20    20    21    1
    21    20    22    1
    22    20    23    1
    23    19    24   ar
    24    24    25    1
    25    13    26   ar
    26    26    27   ar
    27     6    28   ar
    28    28    29   ar
    29    29    30   ar
    30    30    31   ar
    31    31    32   ar
    32    32    33    1
    33    32    34   ar
    34    34    35    2
    35    34     2   ar
    36    31     5   ar
    37    27    11   ar
    38    24    14   ar
    39     1    36    1
    40     1    37    1
    41     1    38    1
    42     7    39    1
    43     7    40    1
    44    10    41    1
    45    15    42    1
    46    16    43    1
    47    26    44    1
    48    28    45    1
    49    29    46    1
    50    33    47    1
    51    33    48    1
    52    33    49    1
@<TRIPOS>MOLECULE
343274
 47 50 0 0 0
SMALL
GASTEIGER

@<TRIPOS>ATOM
      1 C          -5.7002   -0.0818    2.7211 C.3     1  UNL1        0.0196
      2 N          -5.3346    0.0957    1.2997 N.ar    1  UNL1       -0.2634
      3 C          -4.4013   -0.7363    0.8222 C.ar    1  UNL1        0.2648
      4 O          -3.9346   -1.5770    1.5890 O.2     1  UNL1       -0.2668
      5 C          -3.9909   -0.6155   -0.5535 C.ar    1  UNL1        0.0741
      6 C          -3.0852   -1.3820   -1.1329 C.ar    1  UNL1       -0.0172
      7 C          -2.2000   -2.4541   -0.5136 C.3     1  UNL1        0.0508
      8 C          -1.0317   -1.7804    0.1378 C.2     1  UNL1        0.2230
      9 O          -1.0670   -1.1925    1.2402 O.2     1  UNL1       -0.2751
     10 N           0.2235   -1.7816   -0.5239 N.am    1  UNL1       -0.2644
     11 C           1.3820   -1.1224    0.0703 C.ar    1  UNL1        0.1649
     12 N           2.5014   -0.8419   -0.2122 N.ar    1  UNL1       -0.2245
     13 C           3.4146   -0.2204    0.4989 C.ar    1  UNL1        0.0830
     14 C           4.7825    0.1149   -0.0171 C.ar    1  UNL1        0.0368
     15 C           5.0791   -0.1013   -1.3588 C.ar    1  UNL1       -0.0471
     16 C           6.2959    0.1816   -1.9238 C.ar    1  UNL1       -0.0251
     17 C           7.2751    0.7133   -1.0912 C.ar    1  UNL1        0.1379
     18 F           8.4929    1.0065   -1.6258 F       1  UNL1       -0.2048
     19 C           6.9964    0.9305    0.2349 C.ar    1  UNL1        0.1255
     20 C           8.0486    1.4938    1.1037 C.3     1  UNL1        0.4227
     21 F           9.1244    0.5963    1.0667 F       1  UNL1       -0.1657
     22 F           7.6029    1.6569    2.4040 F       1  UNL1       -0.1657
     23 F           8.4572    2.7106    0.5639 F       1  UNL1       -0.1657
     24 C           5.7331    0.6305    0.7948 C.ar    1  UNL1        0.1470
     25 F           5.5134    0.8487    2.0955 F       1  UNL1       -0.2041
     26 C           2.9815    0.1516    1.7648 C.ar    1  UNL1        0.0050
     27 S           1.2694   -0.4536    1.7758 S.2     1  UNL1       -0.0599
     28 C          -2.8356   -1.0889   -2.5584 C.ar    1  UNL1       -0.0180
     29 S          -3.9528    0.2807   -2.8870 S.2     1  UNL1       -0.0783
     30 C          -4.6532    0.3743   -1.1826 C.ar    1  UNL1        0.0965
     31 N          -5.5857    1.2006   -0.6966 N.ar    1  UNL1       -0.2904
     32 C          -6.1912    2.2278   -1.5399 C.3     1  UNL1        0.0172
     33 C          -5.9356    1.0536    0.5882 C.ar    1  UNL1        0.3323
     34 O          -6.7932    1.7905    1.0902 O.2     1  UNL1       -0.2462
     35 H          -6.7094    0.3539    2.8250 H       1  UNL1        0.0458
     36 H          -5.0180    0.5173    3.3744 H       1  UNL1        0.0458
     37 H          -5.7114   -1.1550    2.9678 H       1  UNL1        0.0458
     38 H          -1.8184   -3.1255   -1.2842 H       1  UNL1        0.0407
     39 H          -2.7277   -3.0307    0.2355 H       1  UNL1        0.0407
     40 H           0.3051   -2.2573   -1.4387 H       1  UNL1        0.1567
     41 H           4.2977   -0.5130   -1.9681 H       1  UNL1        0.0626
     42 H           6.5137    0.0108   -2.9738 H       1  UNL1        0.0646
     43 H           3.4655    0.6834    2.6107 H       1  UNL1        0.0716
     44 H          -2.1541   -1.5917   -3.2030 H       1  UNL1        0.0697
     45 H          -5.6387    2.2464   -2.5062 H       1  UNL1        0.0457
     46 H          -7.2671    2.0124   -1.6439 H       1  UNL1        0.0457
     47 H          -6.0186    3.2199   -1.0405 H       1  UNL1        0.0457
@<TRIPOS>BOND
     1     1     2    1
     2     2     3   ar
     3     3     4    2
     4     3     5   ar
     5     5     6   ar
     6     6     7    1
     7     7     8    1
     8     8     9    2
     9     8    10   am
    10    10    11    1
    11    11    12   ar
    12    12    13   ar
    13    13    14    1
    14    14    15   ar
    15    15    16   ar
    16    16    17   ar
    17    17    18    1
    18    17    19   ar
    19    19    20    1
    20    20    21    1
    21    20    22    1
    22    20    23    1
    23    19    24   ar
    24    24    25    1
    25    13    26   ar
    26    26    27   ar
    27     6    28   ar
    28    28    29   ar
    29    29    30   ar
    30    30    31   ar
    31    31    32    1
    32    31    33   ar
    33    33    34    2
    34    33     2   ar
    35    30     5   ar
    36    27    11   ar
    37    24    14   ar
    38     1    35    1
    39     1    36    1
    40     1    37    1
    41     7    38    1
    42     7    39    1
    43    10    40    1
    44    15    41    1
    45    16    42    1
    46    26    43    1
    47    28    44    1
    48    32    45    1
    49    32    46    1
    50    32    47    1
@<TRIPOS>MOLECULE
343299
 46 49 0 0 0
SMALL
GASTEIGER

@<TRIPOS>ATOM
      1 C          -5.5411    0.2346    2.5325 C.3     1  UNL1        0.0196
      2 N          -5.3247    0.1785    1.0748 N.ar    1  UNL1       -0.2634
      3 C          -4.3204   -0.5791    0.6442 C.ar    1  UNL1        0.2664
      4 O          -3.6099   -1.1953    1.5083 O.2     1  UNL1       -0.2668
      5 C          -4.0411   -0.7044   -0.7468 C.ar    1  UNL1        0.0937
      6 C          -3.0834   -1.4443   -1.2893 C.ar    1  UNL1        0.0735
      7 C          -1.9863   -2.2570   -0.6202 C.3     1  UNL1        0.0681
      8 C          -0.8417   -1.3506   -0.3550 C.2     1  UNL1        0.2245
      9 O          -0.8879   -0.4191    0.5143 O.2     1  UNL1       -0.2750
     10 N           0.3226   -1.5669   -1.1267 N.am    1  UNL1       -0.2644
     11 C           1.4929   -0.7809   -0.9771 C.ar    1  UNL1        0.1649
     12 N           2.5270   -0.7152   -0.4388 N.ar    1  UNL1       -0.2245
     13 C           3.4932    0.1597   -0.4654 C.ar    1  UNL1        0.0830
     14 C           4.7856    0.0496    0.2746 C.ar    1  UNL1        0.0368
     15 C           5.0283   -1.1365    0.9720 C.ar    1  UNL1       -0.0471
     16 C           6.1968   -1.3145    1.6783 C.ar    1  UNL1       -0.0251
     17 C           7.1399   -0.3170    1.7003 C.ar    1  UNL1        0.1379
     18 F           8.2979   -0.5296    2.4109 F       1  UNL1       -0.2048
     19 C           6.9273    0.8535    1.0263 C.ar    1  UNL1        0.1255
     20 C           7.9062    1.9493    1.0210 C.3     1  UNL1        0.4227
     21 F           9.1282    1.5588    0.4973 F       1  UNL1       -0.1657
     22 F           7.4315    2.9671    0.2176 F       1  UNL1       -0.1657
     23 F           8.0727    2.4947    2.2829 F       1  UNL1       -0.1657
     24 C           5.7293    1.0190    0.3115 C.ar    1  UNL1        0.1470
     25 F           5.5334    2.1803   -0.3388 F       1  UNL1       -0.2041
     26 C           3.2142    1.2589   -1.3369 C.ar    1  UNL1        0.0050
     27 S           1.5777    0.8257   -1.9732 S.2     1  UNL1       -0.0599
     28 N          -3.0294   -1.4244   -2.7208 N.ar    1  UNL1       -0.2121
     29 S          -4.3661   -0.3338   -3.1883 S.2     1  UNL1        0.0304
     30 C          -4.8951    0.0142   -1.5212 C.ar    1  UNL1        0.1164
     31 N          -5.9115    0.7797   -1.0622 N.ar    1  UNL1       -0.2892
     32 C          -6.7256    1.4860   -2.0206 C.3     1  UNL1        0.0172
     33 C          -6.1469    0.8767    0.2582 C.ar    1  UNL1        0.3323
     34 O          -7.0635    1.5646    0.7096 O.2     1  UNL1       -0.2462
     35 H          -6.1838    1.1152    2.7162 H       1  UNL1        0.0458
     36 H          -4.6156    0.2108    3.1058 H       1  UNL1        0.0458
     37 H          -6.1519   -0.6630    2.8168 H       1  UNL1        0.0458
     38 H          -2.3907   -2.7201    0.3009 H       1  UNL1        0.0423
     39 H          -1.6654   -3.0742   -1.2534 H       1  UNL1        0.0423
     40 H           0.3203   -2.3416   -1.8407 H       1  UNL1        0.1567
     41 H           4.2794   -1.9187    0.9498 H       1  UNL1        0.0626
     42 H           6.3548   -2.2629    2.2161 H       1  UNL1        0.0646
     43 H           3.7854    2.1236   -1.5866 H       1  UNL1        0.0716
     44 H          -7.1492    2.4173   -1.5769 H       1  UNL1        0.0457
     45 H          -6.0658    1.8498   -2.8618 H       1  UNL1        0.0457
     46 H          -7.5482    0.8813   -2.4373 H       1  UNL1        0.0457
@<TRIPOS>BOND
     1     1     2    1
     2     2     3   ar
     3     3     4    2
     4     3     5   ar
     5     5     6   ar
     6     6     7    1
     7     7     8    1
     8     8     9    2
     9     8    10   am
    10    10    11    1
    11    11    12   ar
    12    12    13   ar
    13    13    14    1
    14    14    15   ar
    15    15    16   ar
    16    16    17   ar
    17    17    18    1
    18    17    19   ar
    19    19    20    1
    20    20    21    1
    21    20    22    1
    22    20    23    1
    23    19    24   ar
    24    24    25    1
    25    13    26   ar
    26    26    27   ar
    27     6    28   ar
    28    28    29   ar
    29    29    30   ar
    30    30    31   ar
    31    31    32    1
    32    31    33   ar
    33    33    34    2
    34    33     2   ar
    35    30     5   ar
    36    27    11   ar
    37    24    14   ar
    38     1    35    1
    39     1    36    1
    40     1    37    1
    41     7    38    1
    42     7    39    1
    43    10    40    1
    44    15    41    1
    45    16    42    1
    46    26    43    1
    47    32    44    1
    48    32    45    1
    49    32    46    1
@<TRIPOS>MOLECULE
343314
 46 49 0 0 0
SMALL
GASTEIGER

@<TRIPOS>ATOM
      1 C          -5.6583    0.1287    2.5905 C.3     1  UNL1        0.0196
      2 N          -5.3690    0.0385    1.1546 N.ar    1  UNL1       -0.2633
      3 C          -4.3032   -0.6246    0.6843 C.ar    1  UNL1        0.2690
      4 O          -3.5378   -1.1819    1.4985 O.2     1  UNL1       -0.2667
      5 C          -4.0052   -0.7266   -0.6693 C.ar    1  UNL1        0.1262
      6 C          -3.0461   -1.3146   -1.4417 C.ar    1  UNL1        0.1605
      7 C          -1.8908   -2.0968   -0.9719 C.3     1  UNL1        0.0859
      8 C          -0.7551   -1.1930   -0.5856 C.2     1  UNL1        0.2261
      9 O          -0.8261   -0.4269    0.4111 O.2     1  UNL1       -0.2750
     10 N           0.3860   -1.2621   -1.4114 N.am    1  UNL1       -0.2643
     11 C           1.5236   -0.4702   -1.1430 C.ar    1  UNL1        0.1649
     12 N           2.5902   -0.5209   -0.5635 N.ar    1  UNL1       -0.2245
     13 C           3.5183    0.3881   -0.4597 C.ar    1  UNL1        0.0830
     14 C           4.7797    0.1494    0.2844 C.ar    1  UNL1        0.0368
     15 C           4.9832   -1.0945    0.9039 C.ar    1  UNL1       -0.0471
     16 C           6.1281   -1.3942    1.6035 C.ar    1  UNL1       -0.0251
     17 C           7.1295   -0.4601    1.7158 C.ar    1  UNL1        0.1379
     18 F           8.2676   -0.7605    2.4140 F       1  UNL1       -0.2048
     19 C           6.9476    0.7598    1.1171 C.ar    1  UNL1        0.1255
     20 C           7.9960    1.7964    1.2057 C.3     1  UNL1        0.4227
     21 F           9.1747    1.3336    0.6266 F       1  UNL1       -0.1657
     22 F           7.5623    2.9294    0.5569 F       1  UNL1       -0.1657
     23 F           8.2365    2.0480    2.5589 F       1  UNL1       -0.1657
     24 C           5.7888    1.0513    0.4163 C.ar    1  UNL1        0.1470
     25 F           5.6541    2.2880   -0.1656 F       1  UNL1       -0.2041
     26 C           3.2387    1.5757   -1.1037 C.ar    1  UNL1        0.0050
     27 S           1.6358    1.2931   -1.8225 S.2     1  UNL1       -0.0599
     28 O          -3.3358   -1.0501   -2.7204 O.2     1  UNL1       -0.3563
     29 N          -4.4093   -0.3360   -2.7910 N.ar    1  UNL1       -0.0593
     30 C          -4.8762   -0.0994   -1.5550 C.ar    1  UNL1        0.1923
     31 N          -5.9364    0.5586   -1.0509 N.ar    1  UNL1       -0.2781
     32 C          -6.8268    1.2090   -2.0023 C.3     1  UNL1        0.0182
     33 C          -6.1935    0.6376    0.2554 C.ar    1  UNL1        0.3331
     34 O          -7.1990    1.2633    0.7040 O.2     1  UNL1       -0.2462
     35 H          -6.3916    0.9702    2.7104 H       1  UNL1        0.0458
     36 H          -4.7588    0.3115    3.1989 H       1  UNL1        0.0458
     37 H          -6.1348   -0.8188    2.9258 H       1  UNL1        0.0458
     38 H          -2.1532   -2.7180   -0.0800 H       1  UNL1        0.0439
     39 H          -1.5918   -2.7881   -1.7582 H       1  UNL1        0.0439
     40 H           0.4045   -1.9132   -2.2502 H       1  UNL1        0.1567
     41 H           4.1966   -1.8382    0.8200 H       1  UNL1        0.0626
     42 H           6.2586   -2.3771    2.0796 H       1  UNL1        0.0646
     43 H           3.8309    2.5315   -1.1934 H       1  UNL1        0.0716
     44 H          -7.3749    2.0242   -1.4791 H       1  UNL1        0.0458
     45 H          -6.1830    1.7258   -2.7664 H       1  UNL1        0.0458
     46 H          -7.4748    0.4540   -2.4515 H       1  UNL1        0.0458
@<TRIPOS>BOND
     1     1     2    1
     2     2     3   ar
     3     3     4    2
     4     3     5   ar
     5     5     6   ar
     6     6     7    1
     7     7     8    1
     8     8     9    2
     9     8    10   am
    10    10    11    1
    11    11    12   ar
    12    12    13   ar
    13    13    14    1
    14    14    15   ar
    15    15    16   ar
    16    16    17   ar
    17    17    18    1
    18    17    19   ar
    19    19    20    1
    20    20    21    1
    21    20    22    1
    22    20    23    1
    23    19    24   ar
    24    24    25    1
    25    13    26   ar
    26    26    27   ar
    27     6    28   ar
    28    28    29   ar
    29    29    30   ar
    30    30    31   ar
    31    31    32    1
    32    31    33   ar
    33    33    34    2
    34    33     2   ar
    35    30     5   ar
    36    27    11   ar
    37    24    14   ar
    38     1    35    1
    39     1    36    1
    40     1    37    1
    41     7    38    1
    42     7    39    1
    43    10    40    1
    44    15    41    1
    45    16    42    1
    46    26    43    1
    47    32    44    1
    48    32    45    1
    49    32    46    1
@<TRIPOS>MOLECULE
343237
 47 50 0 0 0
SMALL
GASTEIGER

@<TRIPOS>ATOM
      1 C           3.1892   -3.1524   -0.0270 C.3     1  UNL1        0.0196
      2 N           3.4762   -1.7335   -0.1547 N.ar    1  UNL1       -0.2635
      3 C           2.8328   -0.8472    0.6626 C.ar    1  UNL1        0.2643
      4 O           2.0056   -1.2996    1.5011 O.2     1  UNL1       -0.2668
      5 C           3.0720    0.5021    0.5818 C.ar    1  UNL1        0.0668
      6 C           2.4642    1.4132    1.4026 C.ar    1  UNL1       -0.0243
      7 C           1.4153    0.9636    2.3396 C.3     1  UNL1        0.0503
      8 C           0.0760    0.9832    1.7950 C.2     1  UNL1        0.2230
      9 O          -0.8150    1.6382    2.5162 O.2     1  UNL1       -0.2751
     10 N          -0.4311    0.4400    0.6325 N.am    1  UNL1       -0.2644
     11 C          -1.8036    0.5580    0.2548 C.ar    1  UNL1        0.1649
     12 N          -2.8572   -0.0207    0.1692 N.ar    1  UNL1       -0.2246
     13 C          -4.0228    0.3687   -0.1501 C.ar    1  UNL1        0.0803
     14 C          -5.2608   -0.4696   -0.2720 C.ar    1  UNL1        0.0025
     15 C          -5.2078   -1.8352   -0.0607 C.ar    1  UNL1       -0.0497
     16 C          -6.3290   -2.6385   -0.1481 C.ar    1  UNL1       -0.0244
     17 C          -7.5580   -2.0574   -0.4579 C.ar    1  UNL1        0.1417
     18 F          -8.6619   -2.8350   -0.5480 F       1  UNL1       -0.2040
     19 C          -7.6234   -0.7077   -0.6658 C.ar    1  UNL1        0.0767
     20 CL         -9.1546    0.0435   -1.0242 Cl      1  UNL1       -0.0806
     21 C          -6.4792    0.0831   -0.5747 C.ar    1  UNL1       -0.0314
     22 C          -4.1243    1.7981   -0.4814 C.ar    1  UNL1        0.0049
     23 S          -2.3952    2.2794   -0.2429 S.2     1  UNL1       -0.0599
     24 C           2.8129    2.7501    1.2497 C.ar    1  UNL1       -0.0573
     25 C           3.7292    3.1523    0.3082 C.ar    1  UNL1       -0.0595
     26 C           4.3287    2.2268   -0.5104 C.ar    1  UNL1       -0.0373
     27 C           4.0065    0.9024   -0.3801 C.ar    1  UNL1        0.0586
     28 N           4.6225   -0.0162   -1.1708 N.ar    1  UNL1       -0.2962
     29 C           5.5956    0.4339   -2.1576 C.3     1  UNL1        0.0167
     30 C           4.3646   -1.3296   -1.0646 C.ar    1  UNL1        0.3319
     31 O           4.9600   -2.1660   -1.8225 O.2     1  UNL1       -0.2463
     32 H           4.1424   -3.7069    0.0782 H       1  UNL1        0.0458
     33 H           2.6612   -3.5647   -0.9095 H       1  UNL1        0.0458
     34 H           2.5882   -3.3383    0.8934 H       1  UNL1        0.0458
     35 H           1.6735    0.1468    3.0176 H       1  UNL1        0.0407
     36 H           1.4302    1.8411    3.1139 H       1  UNL1        0.0407
     37 H           0.2163   -0.0772   -0.0237 H       1  UNL1        0.1567
     38 H          -4.2413   -2.2561    0.1818 H       1  UNL1        0.0625
     39 H          -6.2468   -3.6970    0.0290 H       1  UNL1        0.0647
     40 H          -6.5519    1.1550   -0.7348 H       1  UNL1        0.0639
     41 H          -4.9359    2.3470   -0.7586 H       1  UNL1        0.0716
     42 H           2.3223    3.4626    1.9194 H       1  UNL1        0.0621
     43 H           4.0107    4.1951    0.1743 H       1  UNL1        0.0618
     44 H           5.0556    2.5142   -1.2740 H       1  UNL1        0.0638
     45 H           5.1219    0.9600   -2.9965 H       1  UNL1        0.0457
     46 H           6.1499   -0.4706   -2.5313 H       1  UNL1        0.0457
     47 H           6.3762    1.0609   -1.6796 H       1  UNL1        0.0457
@<TRIPOS>BOND
     1     1     2    1
     2     2     3   ar
     3     3     4    2
     4     3     5   ar
     5     5     6   ar
     6     6     7    1
     7     7     8    1
     8     8     9    2
     9     8    10   am
    10    10    11    1
    11    11    12   ar
    12    12    13   ar
    13    13    14    1
    14    14    15   ar
    15    15    16   ar
    16    16    17   ar
    17    17    18    1
    18    17    19   ar
    19    19    20    1
    20    19    21   ar
    21    13    22   ar
    22    22    23   ar
    23     6    24   ar
    24    24    25   ar
    25    25    26   ar
    26    26    27   ar
    27    27    28   ar
    28    28    29    1
    29    28    30   ar
    30    30    31    2
    31    30     2   ar
    32    27     5   ar
    33    23    11   ar
    34    21    14   ar
    35     1    32    1
    36     1    33    1
    37     1    34    1
    38     7    35    1
    39     7    36    1
    40    10    37    1
    41    15    38    1
    42    16    39    1
    43    21    40    1
    44    22    41    1
    45    24    42    1
    46    25    43    1
    47    26    44    1
    48    29    45    1
    49    29    46    1
    50    29    47    1
@<TRIPOS>MOLECULE
343235
 47 50 0 0 0
SMALL
GASTEIGER

@<TRIPOS>ATOM
      1 C           3.8996    2.0190   -2.4095 C.3     1  UNL1        0.0196
      2 N           3.9957    1.0941   -1.2653 N.ar    1  UNL1       -0.2635
      3 C           3.0585    1.1182   -0.2897 C.ar    1  UNL1        0.2643
      4 O           2.1370    1.9529   -0.4244 O.2     1  UNL1       -0.2668
      5 C           3.0466    0.3026    0.8230 C.ar    1  UNL1        0.0668
      6 C           2.0556    0.4021    1.7519 C.ar    1  UNL1       -0.0243
      7 C           0.9426    1.3252    1.6927 C.3     1  UNL1        0.0503
      8 C          -0.1786    1.0054    0.8148 C.2     1  UNL1        0.2230
      9 O          -0.6896    1.9499    0.0873 O.2     1  UNL1       -0.2751
     10 N          -0.7652   -0.2937    0.6920 N.am    1  UNL1       -0.2644
     11 C          -1.8699   -0.4787   -0.1960 C.ar    1  UNL1        0.1649
     12 N          -3.1003   -0.3409   -0.0875 N.ar    1  UNL1       -0.2245
     13 C          -3.9794   -0.5651   -1.0079 C.ar    1  UNL1        0.0830
     14 C          -5.4408   -0.3095   -0.7864 C.ar    1  UNL1        0.0363
     15 C          -6.3499   -0.6266   -1.7423 C.ar    1  UNL1       -0.0471
     16 C          -7.7111   -0.3681   -1.5606 C.ar    1  UNL1       -0.0257
     17 C          -8.0769    0.2214   -0.3797 C.ar    1  UNL1        0.1262
     18 F          -9.3883    0.4874   -0.1555 F       1  UNL1       -0.2054
     19 C          -7.1925    0.5573    0.6099 C.ar    1  UNL1        0.0095
     20 C          -5.8692    0.2898    0.4063 C.ar    1  UNL1        0.1353
     21 F          -4.9889    0.6102    1.3767 F       1  UNL1       -0.2047
     22 C          -3.5131   -0.9990   -2.2222 C.ar    1  UNL1        0.0050
     23 S          -1.7092   -1.0598   -1.9426 S.2     1  UNL1       -0.0599
     24 C           2.1839   -0.4975    2.8366 C.ar    1  UNL1       -0.0573
     25 C           3.2009   -1.3902    2.9554 C.ar    1  UNL1       -0.0595
     26 C           4.1798   -1.4507    1.9802 C.ar    1  UNL1       -0.0373
     27 C           4.0931   -0.5992    0.9227 C.ar    1  UNL1        0.0586
     28 N           5.0314   -0.6057   -0.0689 N.ar    1  UNL1       -0.2962
     29 C           6.1201   -1.5701    0.0833 C.3     1  UNL1        0.0167
     30 C           4.9861    0.2094   -1.1263 C.ar    1  UNL1        0.3319
     31 O           5.8575    0.1943   -2.0267 O.2     1  UNL1       -0.2463
     32 H           3.3547    1.5245   -3.2401 H       1  UNL1        0.0458
     33 H           4.9306    2.2037   -2.7515 H       1  UNL1        0.0458
     34 H           3.4181    2.9778   -2.1087 H       1  UNL1        0.0458
     35 H           1.2434    2.4056    1.6273 H       1  UNL1        0.0407
     36 H           0.4701    1.3284    2.7312 H       1  UNL1        0.0407
     37 H          -0.3526   -1.0689    1.2617 H       1  UNL1        0.1567
     38 H          -6.0711   -1.0854   -2.6788 H       1  UNL1        0.0626
     39 H          -8.4285   -0.6127   -2.3074 H       1  UNL1        0.0646
     40 H          -7.5082    1.0259    1.5595 H       1  UNL1        0.0675
     41 H          -3.9910   -1.2505   -3.1346 H       1  UNL1        0.0716
     42 H           1.4045   -0.4232    3.5759 H       1  UNL1        0.0621
     43 H           3.2707   -2.0698    3.8008 H       1  UNL1        0.0618
     44 H           5.0080   -2.1339    2.0241 H       1  UNL1        0.0638
     45 H           6.6607   -1.4306    1.0587 H       1  UNL1        0.0457
     46 H           5.7262   -2.5743   -0.0708 H       1  UNL1        0.0457
     47 H           6.8991   -1.4019   -0.6887 H       1  UNL1        0.0457
@<TRIPOS>BOND
     1     1     2    1
     2     2     3   ar
     3     3     4    2
     4     3     5   ar
     5     5     6   ar
     6     6     7    1
     7     7     8    1
     8     8     9    2
     9     8    10   am
    10    10    11    1
    11    11    12   ar
    12    12    13   ar
    13    13    14    1
    14    14    15   ar
    15    15    16   ar
    16    16    17   ar
    17    17    18    1
    18    17    19   ar
    19    19    20   ar
    20    20    21    1
    21    13    22   ar
    22    22    23   ar
    23     6    24   ar
    24    24    25   ar
    25    25    26   ar
    26    26    27   ar
    27    27    28   ar
    28    28    29    1
    29    28    30   ar
    30    30    31    2
    31    30     2   ar
    32    27     5   ar
    33    23    11   ar
    34    20    14   ar
    35     1    32    1
    36     1    33    1
    37     1    34    1
    38     7    35    1
    39     7    36    1
    40    10    37    1
    41    15    38    1
    42    16    39    1
    43    19    40    1
    44    22    41    1
    45    24    42    1
    46    25    43    1
    47    26    44    1
    48    29    45    1
    49    29    46    1
    50    29    47    1
@<TRIPOS>MOLECULE
343227
 47 50 0 0 0
SMALL
GASTEIGER

@<TRIPOS>ATOM
      1 C           3.3655   -1.2532    2.6588 C.3     1  UNL1        0.0196
      2 N           3.6913   -0.6765    1.3699 N.ar    1  UNL1       -0.2635
      3 C           2.9248    0.2682    0.7907 C.ar    1  UNL1        0.2643
      4 O           1.9148    0.6155    1.4350 O.2     1  UNL1       -0.2668
      5 C           3.1968    0.8333   -0.4158 C.ar    1  UNL1        0.0668
      6 C           2.4360    1.7977   -1.0323 C.ar    1  UNL1       -0.0243
      7 C           1.2147    2.2904   -0.3712 C.3     1  UNL1        0.0503
      8 C           0.0689    1.3315   -0.4633 C.2     1  UNL1        0.2230
      9 O           0.3099    0.2767   -1.1194 O.2     1  UNL1       -0.2751
     10 N          -1.1714    1.5587    0.1170 N.am    1  UNL1       -0.2644
     11 C          -2.2322    0.5855   -0.0148 C.ar    1  UNL1        0.1649
     12 N          -3.3417    0.3835    0.2881 N.ar    1  UNL1       -0.2246
     13 C          -4.1360   -0.6180    0.0407 C.ar    1  UNL1        0.0802
     14 C          -5.5444   -0.7198    0.5090 C.ar    1  UNL1        0.0010
     15 C          -6.3159   -1.8136    0.2029 C.ar    1  UNL1       -0.0516
     16 C          -7.6324   -1.9255    0.6316 C.ar    1  UNL1       -0.0480
     17 C          -8.1943   -0.9316    1.3791 C.ar    1  UNL1        0.0134
     18 I         -10.2036   -1.0540    2.0590 I       1  UNL1       -0.0438
     19 C          -7.4173    0.1730    1.6891 C.ar    1  UNL1       -0.0480
     20 C          -6.1243    0.2745    1.2636 C.ar    1  UNL1       -0.0516
     21 C          -3.5533   -1.6211   -0.7193 C.ar    1  UNL1        0.0049
     22 S          -1.8822   -0.9948   -1.0011 S.2     1  UNL1       -0.0599
     23 C           2.7917    2.3242   -2.2762 C.ar    1  UNL1       -0.0573
     24 C           3.9296    1.8512   -2.8739 C.ar    1  UNL1       -0.0595
     25 C           4.7174    0.8844   -2.2856 C.ar    1  UNL1       -0.0373
     26 C           4.3505    0.3771   -1.0585 C.ar    1  UNL1        0.0586
     27 N           5.1113   -0.5651   -0.4767 N.ar    1  UNL1       -0.2962
     28 C           6.3205   -1.0583   -1.1271 C.3     1  UNL1        0.0167
     29 C           4.7940   -1.0940    0.7264 C.ar    1  UNL1        0.3319
     30 O           5.4989   -1.9763    1.2801 O.2     1  UNL1       -0.2463
     31 H           2.5031   -1.9554    2.6060 H       1  UNL1        0.0458
     32 H           4.2096   -1.7608    3.1210 H       1  UNL1        0.0458
     33 H           2.9916   -0.3901    3.2840 H       1  UNL1        0.0458
     34 H           1.3329    2.5509    0.6876 H       1  UNL1        0.0407
     35 H           0.8058    3.1941   -0.9403 H       1  UNL1        0.0407
     36 H          -1.3322    2.4373    0.6490 H       1  UNL1        0.1567
     37 H          -5.8620   -2.6055   -0.3951 H       1  UNL1        0.0624
     38 H          -8.2192   -2.7914    0.3804 H       1  UNL1        0.0628
     39 H          -7.8495    0.9502    2.2710 H       1  UNL1        0.0628
     40 H          -5.4909    1.1315    1.4926 H       1  UNL1        0.0624
     41 H          -3.9605   -2.6140   -1.1060 H       1  UNL1        0.0716
     42 H           2.1621    3.0914   -2.7379 H       1  UNL1        0.0621
     43 H           4.2284    2.2484   -3.8484 H       1  UNL1        0.0618
     44 H           5.6262    0.5224   -2.7880 H       1  UNL1        0.0638
     45 H           6.9750   -0.1901   -1.4355 H       1  UNL1        0.0457
     46 H           6.0691   -1.6888   -2.0072 H       1  UNL1        0.0457
     47 H           6.9232   -1.6537   -0.4395 H       1  UNL1        0.0457
@<TRIPOS>BOND
     1     1     2    1
     2     2     3   ar
     3     3     4    2
     4     3     5   ar
     5     5     6   ar
     6     6     7    1
     7     7     8    1
     8     8     9    2
     9     8    10   am
    10    10    11    1
    11    11    12   ar
    12    12    13   ar
    13    13    14    1
    14    14    15   ar
    15    15    16   ar
    16    16    17   ar
    17    17    18    1
    18    17    19   ar
    19    19    20   ar
    20    13    21   ar
    21    21    22   ar
    22     6    23   ar
    23    23    24   ar
    24    24    25   ar
    25    25    26   ar
    26    26    27   ar
    27    27    28    1
    28    27    29   ar
    29    29    30    2
    30    29     2   ar
    31    26     5   ar
    32    22    11   ar
    33    20    14   ar
    34     1    31    1
    35     1    32    1
    36     1    33    1
    37     7    34    1
    38     7    35    1
    39    10    36    1
    40    15    37    1
    41    16    38    1
    42    19    39    1
    43    20    40    1
    44    21    41    1
    45    23    42    1
    46    24    43    1
    47    25    44    1
    48    28    45    1
    49    28    46    1
    50    28    47    1
@<TRIPOS>MOLECULE
343302
 47 50 0 0 0
SMALL
GASTEIGER

@<TRIPOS>ATOM
      1 C          -5.2988    0.3461    2.6224 C.3     1  UNL1        0.0196
      2 N          -5.0328    0.6272    1.2106 N.ar    1  UNL1       -0.2634
      3 C          -4.3301   -0.2738    0.5238 C.ar    1  UNL1        0.2664
      4 O          -3.9613   -1.3070    1.1258 O.2     1  UNL1       -0.2668
      5 C          -4.0253   -0.0477   -0.8491 C.ar    1  UNL1        0.0937
      6 C          -3.3447   -0.8694   -1.6281 C.ar    1  UNL1        0.0735
      7 C          -2.6830   -2.1931   -1.3471 C.3     1  UNL1        0.0681
      8 C          -1.3579   -2.1036   -0.7447 C.2     1  UNL1        0.2245
      9 O          -1.1262   -1.6726    0.3994 O.2     1  UNL1       -0.2750
     10 N          -0.1634   -2.5271   -1.4607 N.am    1  UNL1       -0.2644
     11 C           1.1298   -2.4432   -0.8253 C.ar    1  UNL1        0.1649
     12 N           2.0528   -1.7939   -0.5872 N.ar    1  UNL1       -0.2246
     13 C           3.1601   -2.0422    0.0490 C.ar    1  UNL1        0.0803
     14 C           4.2500   -1.0713    0.2711 C.ar    1  UNL1        0.0025
     15 C           4.1915    0.2298   -0.1816 C.ar    1  UNL1       -0.0490
     16 C           5.2167    1.1219    0.0236 C.ar    1  UNL1       -0.0175
     17 C           6.3598    0.7493    0.6978 C.ar    1  UNL1        0.1483
     18 O           7.4010    1.6577    0.9059 O.3     1  UNL1       -0.4043
     19 C           7.3225    2.9701    0.4395 C.3     1  UNL1        0.5753
     20 F           7.1772    2.9612   -0.9405 F       1  UNL1       -0.1328
     21 F           6.2834    3.6524    1.0393 F       1  UNL1       -0.1328
     22 F           8.5082    3.6300    0.7846 F       1  UNL1       -0.1328
     23 C           6.4361   -0.5451    1.1564 C.ar    1  UNL1        0.0835
     24 CL          7.8685   -1.0519    2.0157 Cl      1  UNL1       -0.0797
     25 C           5.4019   -1.4253    0.9437 C.ar    1  UNL1       -0.0306
     26 C           3.2600   -3.3504    0.5468 C.ar    1  UNL1        0.0049
     27 S           1.7040   -4.0749    0.0188 S.2     1  UNL1       -0.0599
     28 N          -3.1839   -0.3961   -3.0127 N.ar    1  UNL1       -0.2121
     29 S          -4.0490    1.1699   -2.9541 S.2     1  UNL1        0.0304
     30 C          -4.5121    1.1255   -1.3384 C.ar    1  UNL1        0.1164
     31 N          -5.2406    2.0291   -0.5772 N.ar    1  UNL1       -0.2892
     32 C          -5.7155    3.2246   -1.2000 C.3     1  UNL1        0.0172
     33 C          -5.4992    1.7799    0.6941 C.ar    1  UNL1        0.3323
     34 O          -6.1483    2.5594    1.4172 O.2     1  UNL1       -0.2462
     35 H          -6.2376   -0.2234    2.6756 H       1  UNL1        0.0458
     36 H          -4.4119   -0.2224    3.0137 H       1  UNL1        0.0458
     37 H          -5.4005    1.3235    3.1413 H       1  UNL1        0.0458
     38 H          -2.6063   -2.7988   -2.2696 H       1  UNL1        0.0423
     39 H          -3.3169   -2.8034   -0.6682 H       1  UNL1        0.0423
     40 H          -0.2710   -2.8821   -2.4137 H       1  UNL1        0.1567
     41 H           3.2854    0.5327   -0.7194 H       1  UNL1        0.0625
     42 H           5.1292    2.1561   -0.3518 H       1  UNL1        0.0655
     43 H           5.4683   -2.4651    1.3178 H       1  UNL1        0.0640
     44 H           4.0214   -3.8388    1.0954 H       1  UNL1        0.0716
     45 H          -5.3965    4.0999   -0.6274 H       1  UNL1        0.0457
     46 H          -6.8435    3.1933   -1.1532 H       1  UNL1        0.0457
     47 H          -5.4712    3.2829   -2.2801 H       1  UNL1        0.0457
@<TRIPOS>BOND
     1     1     2    1
     2     2     3   ar
     3     3     4    2
     4     3     5   ar
     5     5     6   ar
     6     6     7    1
     7     7     8    1
     8     8     9    2
     9     8    10   am
    10    10    11    1
    11    11    12   ar
    12    12    13   ar
    13    13    14    1
    14    14    15   ar
    15    15    16   ar
    16    16    17   ar
    17    17    18    1
    18    18    19    1
    19    19    20    1
    20    19    21    1
    21    19    22    1
    22    17    23   ar
    23    23    24    1
    24    23    25   ar
    25    13    26   ar
    26    26    27   ar
    27     6    28   ar
    28    28    29   ar
    29    29    30   ar
    30    30    31   ar
    31    31    32    1
    32    31    33   ar
    33    33    34    2
    34    33     2   ar
    35    30     5   ar
    36    27    11   ar
    37    25    14   ar
    38     1    35    1
    39     1    36    1
    40     1    37    1
    41     7    38    1
    42     7    39    1
    43    10    40    1
    44    15    41    1
    45    16    42    1
    46    25    43    1
    47    26    44    1
    48    32    45    1
    49    32    46    1
    50    32    47    1
@<TRIPOS>MOLECULE
343251
 51 54 0 0 0
SMALL
GASTEIGER

@<TRIPOS>ATOM
      1 C          -6.4086   -0.6196    3.1193 C.3     1  UNL1        0.0196
      2 N          -5.9663   -0.1201    1.8186 N.ar    1  UNL1       -0.2635
      3 C          -4.7247   -0.3984    1.4319 C.ar    1  UNL1        0.2643
      4 O          -3.9725   -1.0597    2.1928 O.2     1  UNL1       -0.2668
      5 C          -4.2467    0.0339    0.1951 C.ar    1  UNL1        0.0668
      6 C          -2.9668   -0.2345   -0.2380 C.ar    1  UNL1       -0.0243
      7 C          -2.0406   -0.9545    0.6731 C.3     1  UNL1        0.0503
      8 C          -0.7003   -1.1581   -0.0282 C.2     1  UNL1        0.2230
      9 O          -0.6005   -2.2000   -0.7107 O.2     1  UNL1       -0.2751
     10 N           0.3113   -0.1820    0.1248 N.am    1  UNL1       -0.2644
     11 C           1.5847   -0.3638   -0.5285 C.ar    1  UNL1        0.1649
     12 N           2.7258   -0.3929   -0.2737 N.ar    1  UNL1       -0.2246
     13 C           3.7580   -0.6036   -1.0443 C.ar    1  UNL1        0.0803
     14 C           5.1695   -0.5619   -0.5570 C.ar    1  UNL1        0.0039
     15 C           5.4237   -0.2799    0.7596 C.ar    1  UNL1       -0.0489
     16 C           6.7073   -0.2332    1.2693 C.ar    1  UNL1       -0.0161
     17 C           7.7953   -0.4765    0.4612 C.ar    1  UNL1        0.1650
     18 O           9.1051   -0.4435    0.9152 O.3     1  UNL1       -0.4028
     19 C           9.8668    0.7369    0.8896 C.3     1  UNL1        0.5753
     20 F           9.3089    1.7601    1.6314 F       1  UNL1       -0.1328
     21 F          10.0784    1.1437   -0.4044 F       1  UNL1       -0.1328
     22 F          11.1333    0.4473    1.4177 F       1  UNL1       -0.1328
     23 C           7.5346   -0.7662   -0.8812 C.ar    1  UNL1        0.1657
     24 F           8.5645   -1.0132   -1.7214 F       1  UNL1       -0.2016
     25 C           6.2345   -0.8071   -1.3827 C.ar    1  UNL1       -0.0136
     26 C           3.4348   -0.8297   -2.3797 C.ar    1  UNL1        0.0049
     27 S           1.6457   -0.7066   -2.3766 S.2     1  UNL1       -0.0599
     28 C          -2.5428    0.2183   -1.4803 C.ar    1  UNL1       -0.0573
     29 C          -3.4295    0.9319   -2.2461 C.ar    1  UNL1       -0.0595
     30 C          -4.7052    1.2013   -1.8112 C.ar    1  UNL1       -0.0373
     31 C          -5.1472    0.7570   -0.5716 C.ar    1  UNL1        0.0586
     32 N          -6.3919    1.0296   -0.1673 N.ar    1  UNL1       -0.2962
     33 C          -7.3057    1.8137   -1.0127 C.3     1  UNL1        0.0167
     34 C          -6.7786    0.5794    1.0327 C.ar    1  UNL1        0.3319
     35 O          -7.9543    0.8112    1.4605 O.2     1  UNL1       -0.2463
     36 H          -7.0153    0.1528    3.5903 H       1  UNL1        0.0458
     37 H          -6.9818   -1.5573    2.9000 H       1  UNL1        0.0458
     38 H          -5.5300   -0.9351    3.7221 H       1  UNL1        0.0458
     39 H          -1.7945   -0.2958    1.5238 H       1  UNL1        0.0407
     40 H          -2.3548   -1.9729    0.9287 H       1  UNL1        0.0407
     41 H           0.0949    0.6575    0.7110 H       1  UNL1        0.1567
     42 H           4.6173   -0.0868    1.4281 H       1  UNL1        0.0625
     43 H           6.9110   -0.0075    2.3312 H       1  UNL1        0.0655
     44 H           6.0455   -1.0396   -2.4207 H       1  UNL1        0.0654
     45 H           4.0910   -1.0367   -3.2659 H       1  UNL1        0.0716
     46 H          -1.5248   -0.0154   -1.7751 H       1  UNL1        0.0621
     47 H          -3.1026    1.2838   -3.2146 H       1  UNL1        0.0618
     48 H          -5.4168    1.7664   -2.4150 H       1  UNL1        0.0638
     49 H          -7.4999    1.2186   -1.9094 H       1  UNL1        0.0457
     50 H          -8.2028    2.0255   -0.4273 H       1  UNL1        0.0457
     51 H          -6.8362    2.7834   -1.2822 H       1  UNL1        0.0457
@<TRIPOS>BOND
     1     1     2    1
     2     2     3   ar
     3     3     4    2
     4     3     5   ar
     5     5     6   ar
     6     6     7    1
     7     7     8    1
     8     8     9    2
     9     8    10   am
    10    10    11    1
    11    11    12   ar
    12    12    13   ar
    13    13    14    1
    14    14    15   ar
    15    15    16   ar
    16    16    17   ar
    17    17    18    1
    18    18    19    1
    19    19    20    1
    20    19    21    1
    21    19    22    1
    22    17    23   ar
    23    23    24    1
    24    23    25   ar
    25    13    26   ar
    26    26    27   ar
    27     6    28   ar
    28    28    29   ar
    29    29    30   ar
    30    30    31   ar
    31    31    32   ar
    32    32    33    1
    33    32    34   ar
    34    34    35    2
    35    34     2   ar
    36    31     5   ar
    37    27    11   ar
    38    25    14   ar
    39     1    36    1
    40     1    37    1
    41     1    38    1
    42     7    39    1
    43     7    40    1
    44    10    41    1
    45    15    42    1
    46    16    43    1
    47    25    44    1
    48    26    45    1
    49    28    46    1
    50    29    47    1
    51    30    48    1
    52    33    49    1
    53    33    50    1
    54    33    51    1
@<TRIPOS>MOLECULE
343310
 50 53 0 0 0
SMALL
GASTEIGER

@<TRIPOS>ATOM
      1 C          -4.2325    2.7288    1.4466 C.3     1  UNL1        0.0196
      2 N          -4.6571    1.4843    0.8077 N.ar    1  UNL1       -0.2634
      3 C          -3.8668    0.4029    0.8357 C.ar    1  UNL1        0.2659
      4 O          -2.7766    0.5064    1.4193 O.2     1  UNL1       -0.2668
      5 C          -4.2334   -0.7874    0.2446 C.ar    1  UNL1        0.0857
      6 C          -3.4566   -1.9036    0.2531 C.ar    1  UNL1       -0.0213
      7 C          -2.1415   -1.9253    0.9094 C.3     1  UNL1        0.0504
      8 C          -1.1034   -1.2201    0.1153 C.2     1  UNL1        0.2230
      9 O          -1.3272   -0.6878   -0.9986 O.2     1  UNL1       -0.2751
     10 N           0.1992   -1.1633    0.6740 N.am    1  UNL1       -0.2644
     11 C           1.2934   -0.5082    0.0025 C.ar    1  UNL1        0.1649
     12 N           2.4696   -0.2823    0.1786 N.ar    1  UNL1       -0.2246
     13 C           3.2859    0.3595   -0.6090 C.ar    1  UNL1        0.0803
     14 C           4.7256    0.5967   -0.3180 C.ar    1  UNL1        0.0039
     15 C           5.5039    1.2807   -1.2058 C.ar    1  UNL1       -0.0489
     16 C           6.8462    1.4807   -0.8937 C.ar    1  UNL1       -0.0161
     17 C           7.3795    1.0037    0.2774 C.ar    1  UNL1        0.1650
     18 O           8.7304    1.2061    0.5898 O.3     1  UNL1       -0.4028
     19 C           9.6150    0.1763    0.1314 C.3     1  UNL1        0.5753
     20 F           9.5558    0.0558   -1.2469 F       1  UNL1       -0.1328
     21 F           9.2702   -1.0021    0.7617 F       1  UNL1       -0.1328
     22 F          10.8919    0.5908    0.4702 F       1  UNL1       -0.1328
     23 C           6.5797    0.3110    1.1704 C.ar    1  UNL1        0.1657
     24 F           7.0689   -0.1710    2.3296 F       1  UNL1       -0.2016
     25 C           5.2711    0.1254    0.8484 C.ar    1  UNL1       -0.0136
     26 C           2.7403    0.8385   -1.7860 C.ar    1  UNL1        0.0049
     27 S           1.0088    0.2743   -1.6106 S.2     1  UNL1       -0.0599
     28 C          -3.9124   -3.0594   -0.3725 C.ar    1  UNL1       -0.0391
     29 C          -5.1403   -3.0144   -0.9748 C.ar    1  UNL1        0.0302
     30 N          -5.8988   -1.9140   -0.9793 N.ar    1  UNL1       -0.2370
     31 C          -5.4762   -0.7904   -0.3817 C.ar    1  UNL1        0.1497
     32 N          -6.2623    0.3111   -0.4008 N.ar    1  UNL1       -0.2808
     33 C          -7.5341    0.2663   -1.0565 C.3     1  UNL1        0.0181
     34 C          -5.8504    1.4440    0.1935 C.ar    1  UNL1        0.3330
     35 O          -6.5998    2.4605    0.1636 O.2     1  UNL1       -0.2462
     36 H          -5.0987    3.2277    1.9364 H       1  UNL1        0.0458
     37 H          -3.5123    2.4359    2.2387 H       1  UNL1        0.0458
     38 H          -3.7162    3.3735    0.7191 H       1  UNL1        0.0458
     39 H          -1.7413   -2.9990    0.9416 H       1  UNL1        0.0407
     40 H          -2.1116   -1.5095    1.9349 H       1  UNL1        0.0407
     41 H           0.4485   -1.5812    1.5866 H       1  UNL1        0.1567
     42 H           5.0963    1.6610   -2.1296 H       1  UNL1        0.0625
     43 H           7.4582    2.0163   -1.5884 H       1  UNL1        0.0655
     44 H           4.6244   -0.4105    1.5245 H       1  UNL1        0.0654
     45 H           3.1364    1.4036   -2.6436 H       1  UNL1        0.0716
     46 H          -3.3514   -3.9807   -0.4064 H       1  UNL1        0.0636
     47 H          -5.5187   -3.9047   -1.4700 H       1  UNL1        0.0830
     48 H          -7.5380    0.8209   -2.0219 H       1  UNL1        0.0458
     49 H          -8.3141    0.7477   -0.4034 H       1  UNL1        0.0458
     50 H          -7.8276   -0.7754   -1.2071 H       1  UNL1        0.0458
@<TRIPOS>BOND
     1     1     2    1
     2     2     3   ar
     3     3     4    2
     4     3     5   ar
     5     5     6   ar
     6     6     7    1
     7     7     8    1
     8     8     9    2
     9     8    10   am
    10    10    11    1
    11    11    12   ar
    12    12    13   ar
    13    13    14    1
    14    14    15   ar
    15    15    16   ar
    16    16    17   ar
    17    17    18    1
    18    18    19    1
    19    19    20    1
    20    19    21    1
    21    19    22    1
    22    17    23   ar
    23    23    24    1
    24    23    25   ar
    25    13    26   ar
    26    26    27   ar
    27     6    28   ar
    28    28    29   ar
    29    29    30   ar
    30    30    31   ar
    31    31    32   ar
    32    32    33    1
    33    32    34   ar
    34    34    35    2
    35    34     2   ar
    36    31     5   ar
    37    27    11   ar
    38    25    14   ar
    39     1    36    1
    40     1    37    1
    41     1    38    1
    42     7    39    1
    43     7    40    1
    44    10    41    1
    45    15    42    1
    46    16    43    1
    47    25    44    1
    48    26    45    1
    49    28    46    1
    50    29    47    1
    51    33    48    1
    52    33    49    1
    53    33    50    1
@<TRIPOS>MOLECULE
343304
 47 50 0 0 0
SMALL
GASTEIGER

@<TRIPOS>ATOM
      1 C          -5.3170    0.2620    2.5936 C.3     1  UNL1        0.0196
      2 N          -4.9664    0.6040    1.2012 N.ar    1  UNL1       -0.2634
      3 C          -4.2825   -0.2965    0.5009 C.ar    1  UNL1        0.2664
      4 O          -3.9948   -1.3711    1.0776 O.2     1  UNL1       -0.2668
      5 C          -3.9171   -0.0196   -0.8345 C.ar    1  UNL1        0.0937
      6 C          -3.2456   -0.8118   -1.6651 C.ar    1  UNL1        0.0735
      7 C          -2.6448   -2.1745   -1.4184 C.3     1  UNL1        0.0681
      8 C          -1.3334   -2.1373   -0.7644 C.2     1  UNL1        0.2245
      9 O          -1.1326   -1.6941    0.3808 O.2     1  UNL1       -0.2750
     10 N          -0.1436   -2.6325   -1.4314 N.am    1  UNL1       -0.2644
     11 C           1.1294   -2.5932   -0.7571 C.ar    1  UNL1        0.1649
     12 N           2.0110   -1.9352   -0.5565 N.ar    1  UNL1       -0.2246
     13 C           3.1257   -2.1479    0.1237 C.ar    1  UNL1        0.0803
     14 C           4.1828   -1.1365    0.2838 C.ar    1  UNL1        0.0039
     15 C           4.1138    0.1238   -0.2619 C.ar    1  UNL1       -0.0489
     16 C           5.1065    1.0634   -0.0856 C.ar    1  UNL1       -0.0161
     17 C           6.2288    0.7782    0.6559 C.ar    1  UNL1        0.1650
     18 O           7.2299    1.7252    0.8358 O.3     1  UNL1       -0.4028
     19 C           7.0871    2.9950    0.2487 C.3     1  UNL1        0.5753
     20 F           6.9893    2.8889   -1.1156 F       1  UNL1       -0.1328
     21 F           6.0324    3.7285    0.7764 F       1  UNL1       -0.1328
     22 F           8.2614    3.6984    0.5723 F       1  UNL1       -0.1328
     23 C           6.3249   -0.4789    1.2148 C.ar    1  UNL1        0.1657
     24 F           7.4320   -0.7548    1.9434 F       1  UNL1       -0.2016
     25 C           5.3295   -1.3978    1.0289 C.ar    1  UNL1       -0.0136
     26 C           3.2188   -3.3875    0.6780 C.ar    1  UNL1        0.0049
     27 S           1.6549   -4.1879    0.1729 S.2     1  UNL1       -0.0599
     28 N          -3.0220   -0.2884   -2.9718 N.ar    1  UNL1       -0.2121
     29 S          -3.7968    1.3094   -2.9022 S.2     1  UNL1        0.0304
     30 C          -4.3302    1.2058   -1.2839 C.ar    1  UNL1        0.1164
     31 N          -5.0378    2.0963   -0.5099 N.ar    1  UNL1       -0.2892
     32 C          -5.4380    3.3614   -1.0613 C.3     1  UNL1        0.0172
     33 C          -5.3600    1.7987    0.7407 C.ar    1  UNL1        0.3323
     34 O          -5.9974    2.5795    1.4683 O.2     1  UNL1       -0.2462
     35 H          -6.2883   -0.2350    2.5533 H       1  UNL1        0.0458
     36 H          -4.5307   -0.3920    3.0491 H       1  UNL1        0.0458
     37 H          -5.3617    1.2213    3.1556 H       1  UNL1        0.0458
     38 H          -2.5745   -2.7714   -2.3361 H       1  UNL1        0.0423
     39 H          -3.3176   -2.7611   -0.7441 H       1  UNL1        0.0423
     40 H          -0.2777   -3.0012   -2.3941 H       1  UNL1        0.1567
     41 H           3.2162    0.3427   -0.8524 H       1  UNL1        0.0625
     42 H           4.9687    2.0409   -0.5522 H       1  UNL1        0.0655
     43 H           5.3925   -2.4040    1.4687 H       1  UNL1        0.0654
     44 H           3.9638   -3.8871    1.2756 H       1  UNL1        0.0716
     45 H          -4.9696    4.1654   -0.4695 H       1  UNL1        0.0457
     46 H          -6.5428    3.4372   -0.9005 H       1  UNL1        0.0457
     47 H          -5.1769    3.4711   -2.1321 H       1  UNL1        0.0457
@<TRIPOS>BOND
     1     1     2    1
     2     2     3   ar
     3     3     4    2
     4     3     5   ar
     5     5     6   ar
     6     6     7    1
     7     7     8    1
     8     8     9    2
     9     8    10   am
    10    10    11    1
    11    11    12   ar
    12    12    13   ar
    13    13    14    1
    14    14    15   ar
    15    15    16   ar
    16    16    17   ar
    17    17    18    1
    18    18    19    1
    19    19    20    1
    20    19    21    1
    21    19    22    1
    22    17    23   ar
    23    23    24    1
    24    23    25   ar
    25    13    26   ar
    26    26    27   ar
    27     6    28   ar
    28    28    29   ar
    29    29    30   ar
    30    30    31   ar
    31    31    32    1
    32    31    33   ar
    33    33    34    2
    34    33     2   ar
    35    30     5   ar
    36    27    11   ar
    37    25    14   ar
    38     1    35    1
    39     1    36    1
    40     1    37    1
    41     7    38    1
    42     7    39    1
    43    10    40    1
    44    15    41    1
    45    16    42    1
    46    25    43    1
    47    26    44    1
    48    32    45    1
    49    32    46    1
    50    32    47    1
@<TRIPOS>MOLECULE
343252
 51 54 0 0 0
SMALL
GASTEIGER

@<TRIPOS>ATOM
      1 C          -3.2110    3.7497   -0.4515 C.3     1  UNL1        0.0196
      2 N          -3.7412    2.3879   -0.4005 N.ar    1  UNL1       -0.2635
      3 C          -3.1926    1.4493    0.4247 C.ar    1  UNL1        0.2643
      4 O          -2.2332    1.8043    1.1354 O.2     1  UNL1       -0.2668
      5 C          -3.6473    0.1562    0.5066 C.ar    1  UNL1        0.0668
      6 C          -3.1192   -0.7641    1.3359 C.ar    1  UNL1       -0.0243
      7 C          -1.9298   -0.5596    2.1613 C.3     1  UNL1        0.0503
      8 C          -0.6372   -0.7995    1.5144 C.2     1  UNL1        0.2230
      9 O          -0.0116    0.0594    0.8949 O.2     1  UNL1       -0.2751
     10 N          -0.0416   -2.1177    1.5879 N.am    1  UNL1       -0.2644
     11 C           1.2723   -2.2724    0.9123 C.ar    1  UNL1        0.1649
     12 N           2.2116   -1.7148    0.6709 N.ar    1  UNL1       -0.2246
     13 C           3.2773   -2.0295   -0.0408 C.ar    1  UNL1        0.0803
     14 C           4.4561   -1.1273   -0.2100 C.ar    1  UNL1        0.0025
     15 C           4.5230    0.0952    0.4119 C.ar    1  UNL1       -0.0490
     16 C           5.5776    0.9762    0.2423 C.ar    1  UNL1       -0.0176
     17 C           6.5962    0.6098   -0.5794 C.ar    1  UNL1        0.1451
     18 O           7.6726    1.4381   -0.7899 O.3     1  UNL1       -0.4328
     19 C           7.7407    2.7109   -0.2095 C.3     1  UNL1        0.3893
     20 F           8.5065    3.6169   -0.8821 F       1  UNL1       -0.1663
     21 F           8.2792    2.5983    1.1076 F       1  UNL1       -0.1663
     22 C           6.5532   -0.6236   -1.2212 C.ar    1  UNL1        0.0834
     23 CL          7.8710   -1.0008   -2.2859 Cl      1  UNL1       -0.0797
     24 C           5.4890   -1.4803   -1.0323 C.ar    1  UNL1       -0.0306
     25 C           3.2025   -3.2653   -0.5713 C.ar    1  UNL1        0.0049
     26 S           1.5768   -3.9069   -0.0016 S.2     1  UNL1       -0.0599
     27 C          -3.6871   -2.0681    1.3654 C.ar    1  UNL1       -0.0573
     28 C          -4.7512   -2.4233    0.5772 C.ar    1  UNL1       -0.0595
     29 C          -5.2703   -1.4773   -0.2579 C.ar    1  UNL1       -0.0373
     30 C          -4.7379   -0.1995   -0.3063 C.ar    1  UNL1        0.0586
     31 N          -5.2677    0.7430   -1.1161 N.ar    1  UNL1       -0.2962
     32 C          -6.3981    0.3489   -1.9503 C.3     1  UNL1        0.0167
     33 C          -4.7761    1.9973   -1.1543 C.ar    1  UNL1        0.3319
     34 O          -5.3429    2.8062   -1.9469 O.2     1  UNL1       -0.2463
     35 H          -2.9314    3.9238   -1.5303 H       1  UNL1        0.0458
     36 H          -3.9195    4.5031   -0.0872 H       1  UNL1        0.0458
     37 H          -2.2474    3.7539    0.0894 H       1  UNL1        0.0458
     38 H          -1.9929   -1.3392    2.9913 H       1  UNL1        0.0407
     39 H          -1.9438    0.3709    2.7812 H       1  UNL1        0.0407
     40 H          -0.4972   -2.8920    2.0536 H       1  UNL1        0.1567
     41 H           3.7060    0.3629    1.0626 H       1  UNL1        0.0625
     42 H           5.5029    1.9023    0.7994 H       1  UNL1        0.0655
     43 H           6.7065    3.0788   -0.0504 H       1  UNL1        0.1520
     44 H           5.4968   -2.4384   -1.5543 H       1  UNL1        0.0640
     45 H           3.9016   -3.8902   -1.2308 H       1  UNL1        0.0716
     46 H          -3.2674   -2.8169    2.0317 H       1  UNL1        0.0621
     47 H          -5.1832   -3.4299    0.6097 H       1  UNL1        0.0618
     48 H          -6.1116   -1.6699   -0.9217 H       1  UNL1        0.0638
     49 H          -6.0060   -0.3678   -2.6998 H       1  UNL1        0.0457
     50 H          -6.7750    1.2933   -2.4282 H       1  UNL1        0.0457
     51 H          -7.2482   -0.0621   -1.3596 H       1  UNL1        0.0457
@<TRIPOS>BOND
     1     1     2    1
     2     2     3   ar
     3     3     4    2
     4     3     5   ar
     5     5     6   ar
     6     6     7    1
     7     7     8    1
     8     8     9    2
     9     8    10   am
    10    10    11    1
    11    11    12   ar
    12    12    13   ar
    13    13    14    1
    14    14    15   ar
    15    15    16   ar
    16    16    17   ar
    17    17    18    1
    18    18    19    1
    19    19    20    1
    20    19    21    1
    21    17    22   ar
    22    22    23    1
    23    22    24   ar
    24    13    25   ar
    25    25    26   ar
    26     6    27   ar
    27    27    28   ar
    28    28    29   ar
    29    29    30   ar
    30    30    31   ar
    31    31    32    1
    32    31    33   ar
    33    33    34    2
    34    33     2   ar
    35    30     5   ar
    36    26    11   ar
    37    24    14   ar
    38     1    35    1
    39     1    36    1
    40     1    37    1
    41     7    38    1
    42     7    39    1
    43    10    40    1
    44    15    41    1
    45    16    42    1
    46    19    43    1
    47    24    44    1
    48    25    45    1
    49    27    46    1
    50    28    47    1
    51    29    48    1
    52    32    49    1
    53    32    50    1
    54    32    51    1
@<TRIPOS>MOLECULE
343229
 50 53 0 0 0
SMALL
GASTEIGER

@<TRIPOS>ATOM
      1 C          -6.4413    2.6577   -1.3169 C.3     1  UNL1        0.0196
      2 N          -5.9199    1.4808   -0.6501 N.ar    1  UNL1       -0.2635
      3 C          -4.5665    1.2830   -0.6493 C.ar    1  UNL1        0.2643
      4 O          -3.8152    2.1136   -1.2170 O.2     1  UNL1       -0.2668
      5 C          -4.0114    0.1872   -0.0353 C.ar    1  UNL1        0.0668
      6 C          -2.6504   -0.0632   -0.0015 C.ar    1  UNL1       -0.0243
      7 C          -1.7474    0.9153   -0.6467 C.3     1  UNL1        0.0503
      8 C          -0.3507    0.3867   -0.5218 C.2     1  UNL1        0.2230
      9 O           0.0694   -0.6102   -1.1573 O.2     1  UNL1       -0.2751
     10 N           0.5844    1.0100    0.3509 N.am    1  UNL1       -0.2644
     11 C           1.9689    0.4666    0.4712 C.ar    1  UNL1        0.1649
     12 N           3.0166    0.5284    0.0840 N.ar    1  UNL1       -0.2246
     13 C           4.1237   -0.1323    0.4123 C.ar    1  UNL1        0.0802
     14 C           5.4705    0.0844   -0.2141 C.ar    1  UNL1        0.0015
     15 C           5.6682    1.0107   -1.2054 C.ar    1  UNL1       -0.0525
     16 C           6.9161    1.2071   -1.7749 C.ar    1  UNL1       -0.0606
     17 C           7.9825    0.4523   -1.3326 C.ar    1  UNL1       -0.0501
     18 C           7.8005   -0.4816   -0.3375 C.ar    1  UNL1        0.0554
     19 C           8.9343   -1.3138    0.1648 C.3     1  UNL1        0.4174
     20 F           9.3056   -0.7784    1.3836 F       1  UNL1       -0.1659
     21 F           8.6118   -2.6442    0.2207 F       1  UNL1       -0.1659
     22 F          10.0019   -1.1395   -0.6792 F       1  UNL1       -0.1659
     23 C           6.5384   -0.6630    0.2207 C.ar    1  UNL1       -0.0409
     24 C           3.9070   -1.0626    1.4218 C.ar    1  UNL1        0.0049
     25 S           2.1239   -0.8864    1.7944 S.2     1  UNL1       -0.0599
     26 C          -2.1339   -1.1867    0.6345 C.ar    1  UNL1       -0.0573
     27 C          -2.9717   -2.0957    1.2574 C.ar    1  UNL1       -0.0595
     28 C          -4.3149   -1.8506    1.2257 C.ar    1  UNL1       -0.0373
     29 C          -4.8403   -0.7227    0.5884 C.ar    1  UNL1        0.0586
     30 N          -6.1651   -0.5035    0.5724 N.ar    1  UNL1       -0.2962
     31 C          -7.0130   -1.4889    1.2554 C.3     1  UNL1        0.0167
     32 C          -6.6837    0.5729   -0.0333 C.ar    1  UNL1        0.3319
     33 O          -7.9485    0.7372   -0.0215 O.2     1  UNL1       -0.2463
     34 H          -5.6713    3.4356   -1.4338 H       1  UNL1        0.0458
     35 H          -7.3689    3.0198   -0.8241 H       1  UNL1        0.0458
     36 H          -6.6880    2.3328   -2.3720 H       1  UNL1        0.0458
     37 H          -1.9463    0.8945   -1.7453 H       1  UNL1        0.0407
     38 H          -1.7449    1.9132   -0.2012 H       1  UNL1        0.0407
     39 H           0.3157    1.8412    0.9064 H       1  UNL1        0.1567
     40 H           4.8259    1.5969   -1.5435 H       1  UNL1        0.0624
     41 H           7.0042    1.9617   -2.5606 H       1  UNL1        0.0618
     42 H           8.9455    0.6227   -1.7917 H       1  UNL1        0.0623
     43 H           6.4011   -1.3911    0.9950 H       1  UNL1        0.0630
     44 H           4.5882   -1.7761    1.9342 H       1  UNL1        0.0716
     45 H          -1.0521   -1.3379    0.6434 H       1  UNL1        0.0621
     46 H          -2.4949   -2.9421    1.7293 H       1  UNL1        0.0618
     47 H          -4.9654   -2.5572    1.7093 H       1  UNL1        0.0638
     48 H          -6.6694   -1.4986    2.3216 H       1  UNL1        0.0457
     49 H          -8.0644   -1.1255    1.2091 H       1  UNL1        0.0457
     50 H          -6.8650   -2.4604    0.7585 H       1  UNL1        0.0457
@<TRIPOS>BOND
     1     1     2    1
     2     2     3   ar
     3     3     4    2
     4     3     5   ar
     5     5     6   ar
     6     6     7    1
     7     7     8    1
     8     8     9    2
     9     8    10   am
    10    10    11    1
    11    11    12   ar
    12    12    13   ar
    13    13    14    1
    14    14    15   ar
    15    15    16   ar
    16    16    17   ar
    17    17    18   ar
    18    18    19    1
    19    19    20    1
    20    19    21    1
    21    19    22    1
    22    18    23   ar
    23    13    24   ar
    24    24    25   ar
    25     6    26   ar
    26    26    27   ar
    27    27    28   ar
    28    28    29   ar
    29    29    30   ar
    30    30    31    1
    31    30    32   ar
    32    32    33    2
    33    32     2   ar
    34    29     5   ar
    35    25    11   ar
    36    23    14   ar
    37     1    34    1
    38     1    35    1
    39     1    36    1
    40     7    37    1
    41     7    38    1
    42    10    39    1
    43    15    40    1
    44    16    41    1
    45    17    42    1
    46    23    43    1
    47    24    44    1
    48    26    45    1
    49    27    46    1
    50    28    47    1
    51    31    48    1
    52    31    49    1
    53    31    50    1
@<TRIPOS>MOLECULE
343281
 47 50 0 0 0
SMALL
GASTEIGER

@<TRIPOS>ATOM
      1 C           6.0281    1.1270    2.5314 C.3     1  UNL1        0.0196
      2 N           5.4936    0.8004    1.2216 N.ar    1  UNL1       -0.2633
      3 C           4.5374   -0.1181    1.0987 C.ar    1  UNL1        0.2675
      4 O           4.0461   -0.6939    2.0834 O.2     1  UNL1       -0.2667
      5 C           4.0327   -0.4927   -0.1439 C.ar    1  UNL1        0.1062
      6 C           3.0961   -1.3932   -0.5368 C.ar    1  UNL1        0.0137
      7 C           2.2273   -2.2828    0.1843 C.3     1  UNL1        0.0532
      8 C           0.8649   -1.9124    0.5265 C.2     1  UNL1        0.2231
      9 O           0.3881   -2.0392    1.6894 O.2     1  UNL1       -0.2751
     10 N           0.0063   -1.3965   -0.4919 N.am    1  UNL1       -0.2644
     11 C          -1.3770   -1.1269   -0.3381 C.ar    1  UNL1        0.1649
     12 N          -2.3354   -0.4401   -0.0119 N.ar    1  UNL1       -0.2245
     13 C          -3.5920   -0.6717   -0.1089 C.ar    1  UNL1        0.0830
     14 C          -4.7598    0.1223    0.3776 C.ar    1  UNL1        0.0367
     15 C          -4.7610    0.8727    1.5126 C.ar    1  UNL1       -0.0498
     16 C          -5.8682    1.5951    1.9358 C.ar    1  UNL1       -0.0604
     17 C          -7.0059    1.5521    1.1742 C.ar    1  UNL1       -0.0473
     18 C          -7.0564    0.8099    0.0147 C.ar    1  UNL1        0.0905
     19 C          -8.2865    0.7844   -0.8185 C.3     1  UNL1        0.4201
     20 F          -8.7871   -0.4731   -1.0098 F       1  UNL1       -0.1658
     21 F          -9.2789    1.5037   -0.1496 F       1  UNL1       -0.1658
     22 F          -8.1277    1.3909   -2.0367 F       1  UNL1       -0.1658
     23 C          -5.9396    0.1019   -0.3787 C.ar    1  UNL1        0.1442
     24 F          -5.9589   -0.6048   -1.5462 F       1  UNL1       -0.2042
     25 C          -3.9194   -1.9338   -0.6908 C.ar    1  UNL1        0.0050
     26 S          -2.3951   -2.6308   -1.0245 S.2     1  UNL1       -0.0599
     27 C           3.0865   -1.2833   -1.9481 C.ar    1  UNL1        0.0988
     28 O           3.9581   -0.3908   -2.2821 O.2     1  UNL1       -0.4460
     29 C           4.5794    0.1381   -1.2528 C.ar    1  UNL1        0.2171
     30 N           5.5356    1.0552   -1.0914 N.ar    1  UNL1       -0.2667
     31 C           6.0971    1.6644   -2.2714 C.3     1  UNL1        0.0194
     32 C           6.0002    1.3941    0.1472 C.ar    1  UNL1        0.3341
     33 O           6.9136    2.2743    0.2219 O.2     1  UNL1       -0.2462
     34 H           6.6771    0.2389    2.8228 H       1  UNL1        0.0458
     35 H           6.6900    1.9860    2.5312 H       1  UNL1        0.0458
     36 H           5.1998    1.1275    3.2409 H       1  UNL1        0.0458
     37 H           2.7058   -2.5032    1.2421 H       1  UNL1        0.0408
     38 H           2.1913   -3.3307   -0.2731 H       1  UNL1        0.0408
     39 H           0.4500   -1.1776   -1.4112 H       1  UNL1        0.1567
     40 H          -3.8604    0.9016    2.1148 H       1  UNL1        0.0625
     41 H          -5.8279    2.1843    2.8672 H       1  UNL1        0.0618
     42 H          -7.8682    2.1191    1.5131 H       1  UNL1        0.0624
     43 H          -4.9262   -2.3479   -0.8533 H       1  UNL1        0.0716
     44 H           2.4504   -1.8576   -2.6347 H       1  UNL1        0.1033
     45 H           5.3833    2.4089   -2.6682 H       1  UNL1        0.0458
     46 H           7.1025    2.1058   -2.0469 H       1  UNL1        0.0458
     47 H           6.1906    0.8424   -3.0323 H       1  UNL1        0.0458
@<TRIPOS>BOND
     1     1     2    1
     2     2     3   ar
     3     3     4    2
     4     3     5   ar
     5     5     6   ar
     6     6     7    1
     7     7     8    1
     8     8     9    2
     9     8    10   am
    10    10    11    1
    11    11    12   ar
    12    12    13   ar
    13    13    14    1
    14    14    15   ar
    15    15    16   ar
    16    16    17   ar
    17    17    18   ar
    18    18    19    1
    19    19    20    1
    20    19    21    1
    21    19    22    1
    22    18    23   ar
    23    23    24    1
    24    13    25   ar
    25    25    26   ar
    26     6    27   ar
    27    27    28   ar
    28    28    29   ar
    29    29    30   ar
    30    30    31    1
    31    30    32   ar
    32    32    33    2
    33    32     2   ar
    34    29     5   ar
    35    26    11   ar
    36    23    14   ar
    37     1    34    1
    38     1    35    1
    39     1    36    1
    40     7    37    1
    41     7    38    1
    42    10    39    1
    43    15    40    1
    44    16    41    1
    45    17    42    1
    46    25    43    1
    47    27    44    1
    48    31    45    1
    49    31    46    1
    50    31    47    1
@<TRIPOS>MOLECULE
343301
 46 49 0 0 0
SMALL
GASTEIGER

@<TRIPOS>ATOM
      1 C           5.7681    1.4124    2.2669 C.3     1  UNL1        0.0196
      2 N           5.3147    0.8731    0.9751 N.ar    1  UNL1       -0.2634
      3 C           4.4045   -0.0934    0.9600 C.ar    1  UNL1        0.2664
      4 O           3.9532   -0.4739    2.0592 O.2     1  UNL1       -0.2668
      5 C           3.9894   -0.6452   -0.2722 C.ar    1  UNL1        0.0937
      6 C           3.1132   -1.6533   -0.4223 C.ar    1  UNL1        0.0735
      7 C           2.2420   -2.4197    0.5167 C.3     1  UNL1        0.0681
      8 C           0.8694   -2.0062    0.6940 C.2     1  UNL1        0.2245
      9 O           0.3290   -1.9925    1.8221 O.2     1  UNL1       -0.2750
     10 N           0.0938   -1.6254   -0.4741 N.am    1  UNL1       -0.2644
     11 C          -1.2956   -1.3628   -0.3591 C.ar    1  UNL1        0.1649
     12 N          -2.2097   -0.5680   -0.1250 N.ar    1  UNL1       -0.2245
     13 C          -3.4900   -0.8137   -0.1564 C.ar    1  UNL1        0.0830
     14 C          -4.5555    0.1797    0.1757 C.ar    1  UNL1        0.0367
     15 C          -4.3068    1.3843    0.7799 C.ar    1  UNL1       -0.0498
     16 C          -5.2993    2.2986    1.0787 C.ar    1  UNL1       -0.0604
     17 C          -6.6004    2.0214    0.7726 C.ar    1  UNL1       -0.0473
     18 C          -6.8831    0.8322    0.1692 C.ar    1  UNL1        0.0905
     19 C          -8.2671    0.4911   -0.2372 C.3     1  UNL1        0.4201
     20 F          -9.1488    1.4435    0.2173 F       1  UNL1       -0.1658
     21 F          -8.6684   -0.7685    0.0940 F       1  UNL1       -0.1658
     22 F          -8.3527    0.5541   -1.6403 F       1  UNL1       -0.1658
     23 C          -5.8824   -0.0756   -0.1276 C.ar    1  UNL1        0.1442
     24 F          -6.2569   -1.2194   -0.7406 F       1  UNL1       -0.2042
     25 C          -3.8755   -2.1044   -0.4816 C.ar    1  UNL1        0.0050
     26 S          -2.3171   -2.9083   -0.7368 S.2     1  UNL1       -0.0599
     27 N           2.9133   -2.0535   -1.7445 N.ar    1  UNL1       -0.2121
     28 S           3.9499   -1.0186   -2.7271 S.2     1  UNL1        0.0304
     29 C           4.5815   -0.1180   -1.3517 C.ar    1  UNL1        0.1164
     30 N           5.5351    0.8992   -1.2753 N.ar    1  UNL1       -0.2892
     31 C           6.0959    1.4014   -2.4958 C.3     1  UNL1        0.0172
     32 C           5.9013    1.3951   -0.1088 C.ar    1  UNL1        0.3323
     33 O           6.7560    2.3110   -0.0361 O.2     1  UNL1       -0.2462
     34 H           6.0724    0.4833    2.8337 H       1  UNL1        0.0458
     35 H           6.6655    2.0093    2.1532 H       1  UNL1        0.0458
     36 H           4.9934    1.8956    2.8418 H       1  UNL1        0.0458
     37 H           2.7112   -2.3499    1.5708 H       1  UNL1        0.0423
     38 H           2.3410   -3.5456    0.3387 H       1  UNL1        0.0423
     39 H           0.5712   -1.5316   -1.3604 H       1  UNL1        0.1567
     40 H          -3.2760    1.6382    1.0368 H       1  UNL1        0.0625
     41 H          -5.0394    3.2338    1.5570 H       1  UNL1        0.0618
     42 H          -7.4066    2.7335    1.0067 H       1  UNL1        0.0624
     43 H          -4.8220   -2.5868   -0.5719 H       1  UNL1        0.0716
     44 H           5.9235    2.4680   -2.6320 H       1  UNL1        0.0457
     45 H           5.6729    0.8307   -3.3684 H       1  UNL1        0.0457
     46 H           7.1919    1.1449   -2.4727 H       1  UNL1        0.0457
@<TRIPOS>BOND
     1     1     2    1
     2     2     3   ar
     3     3     4    2
     4     3     5   ar
     5     5     6   ar
     6     6     7    1
     7     7     8    1
     8     8     9    2
     9     8    10   am
    10    10    11    1
    11    11    12   ar
    12    12    13   ar
    13    13    14    1
    14    14    15   ar
    15    15    16   ar
    16    16    17   ar
    17    17    18   ar
    18    18    19    1
    19    19    20    1
    20    19    21    1
    21    19    22    1
    22    18    23   ar
    23    23    24    1
    24    13    25   ar
    25    25    26   ar
    26     6    27   ar
    27    27    28   ar
    28    28    29   ar
    29    29    30   ar
    30    30    31    1
    31    30    32   ar
    32    32    33    2
    33    32     2   ar
    34    29     5   ar
    35    26    11   ar
    36    23    14   ar
    37     1    34    1
    38     1    35    1
    39     1    36    1
    40     7    37    1
    41     7    38    1
    42    10    39    1
    43    15    40    1
    44    16    41    1
    45    17    42    1
    46    25    43    1
    47    31    44    1
    48    31    45    1
    49    31    46    1
@<TRIPOS>MOLECULE
343231
 47 50 0 0 0
SMALL
GASTEIGER

@<TRIPOS>ATOM
      1 C          -5.4117    2.0233   -2.5753 C.3     1  UNL1        0.0196
      2 N          -5.0592    1.1219   -1.5095 N.ar    1  UNL1       -0.2635
      3 C          -3.7525    0.9440   -1.2239 C.ar    1  UNL1        0.2643
      4 O          -2.9241    1.5658   -1.8922 O.2     1  UNL1       -0.2668
      5 C          -3.3568    0.0978   -0.2198 C.ar    1  UNL1        0.0668
      6 C          -2.0122   -0.1073    0.1046 C.ar    1  UNL1       -0.0243
      7 C          -0.9822    0.6200   -0.6790 C.3     1  UNL1        0.0503
      8 C           0.3701    0.1878   -0.2396 C.2     1  UNL1        0.2230
      9 O           0.7272   -1.0152   -0.3582 O.2     1  UNL1       -0.2751
     10 N           1.2943    1.0971    0.3199 N.am    1  UNL1       -0.2644
     11 C           2.5801    0.6250    0.7236 C.ar    1  UNL1        0.1649
     12 N           3.6984    0.4574    0.3165 N.ar    1  UNL1       -0.2246
     13 C           4.7219   -0.0174    0.9472 C.ar    1  UNL1        0.0803
     14 C           6.0699   -0.1781    0.3280 C.ar    1  UNL1        0.0023
     15 C           7.1257   -0.6908    1.0499 C.ar    1  UNL1       -0.0525
     16 C           8.3833   -0.8346    0.4536 C.ar    1  UNL1       -0.0598
     17 C           8.5538   -0.4575   -0.8652 C.ar    1  UNL1       -0.0434
     18 C           7.5020    0.0603   -1.6073 C.ar    1  UNL1        0.0416
     19 CL          7.6817    0.5454   -3.2686 Cl      1  UNL1       -0.0835
     20 C           6.2713    0.1883   -0.9835 C.ar    1  UNL1       -0.0342
     21 C           4.5204   -0.3871    2.2683 C.ar    1  UNL1        0.0049
     22 S           2.7517    0.0261    2.4498 S.2     1  UNL1       -0.0599
     23 C          -1.7404   -0.9736    1.1316 C.ar    1  UNL1       -0.0573
     24 C          -2.7519   -1.6294    1.8305 C.ar    1  UNL1       -0.0595
     25 C          -4.0719   -1.4295    1.5128 C.ar    1  UNL1       -0.0373
     26 C          -4.3549   -0.5596    0.4814 C.ar    1  UNL1        0.0586
     27 N          -5.6561   -0.3545    0.1646 N.ar    1  UNL1       -0.2962
     28 C          -6.6565   -1.0505    0.9098 C.3     1  UNL1        0.0167
     29 C          -6.0209    0.4820   -0.8268 C.ar    1  UNL1        0.3319
     30 O          -7.2401    0.6366   -1.0798 O.2     1  UNL1       -0.2463
     31 H          -4.6836    1.9796   -3.4091 H       1  UNL1        0.0458
     32 H          -6.4317    1.8928   -2.9588 H       1  UNL1        0.0458
     33 H          -5.3597    3.0744   -2.1836 H       1  UNL1        0.0458
     34 H          -1.0439    0.2942   -1.7482 H       1  UNL1        0.0407
     35 H          -1.0389    1.7081   -0.5423 H       1  UNL1        0.0407
     36 H           0.9998    2.0902    0.4185 H       1  UNL1        0.1567
     37 H           6.9772   -0.9782    2.0714 H       1  UNL1        0.0624
     38 H           9.1847   -1.2410    1.0550 H       1  UNL1        0.0618
     39 H           9.5155   -0.5703   -1.3121 H       1  UNL1        0.0632
     40 H           5.4248    0.5895   -1.5320 H       1  UNL1        0.0639
     41 H           5.1602   -0.8089    3.0519 H       1  UNL1        0.0716
     42 H          -0.6994   -1.1318    1.3950 H       1  UNL1        0.0621
     43 H          -2.4877   -2.2952    2.6233 H       1  UNL1        0.0618
     44 H          -4.8761   -1.9395    2.0555 H       1  UNL1        0.0638
     45 H          -7.6561   -0.7082    0.5799 H       1  UNL1        0.0457
     46 H          -6.6151   -0.7994    2.0076 H       1  UNL1        0.0457
     47 H          -6.6304   -2.1498    0.7641 H       1  UNL1        0.0457
@<TRIPOS>BOND
     1     1     2    1
     2     2     3   ar
     3     3     4    2
     4     3     5   ar
     5     5     6   ar
     6     6     7    1
     7     7     8    1
     8     8     9    2
     9     8    10   am
    10    10    11    1
    11    11    12   ar
    12    12    13   ar
    13    13    14    1
    14    14    15   ar
    15    15    16   ar
    16    16    17   ar
    17    17    18   ar
    18    18    19    1
    19    18    20   ar
    20    13    21   ar
    21    21    22   ar
    22     6    23   ar
    23    23    24   ar
    24    24    25   ar
    25    25    26   ar
    26    26    27   ar
    27    27    28    1
    28    27    29   ar
    29    29    30    2
    30    29     2   ar
    31    26     5   ar
    32    22    11   ar
    33    20    14   ar
    34     1    31    1
    35     1    32    1
    36     1    33    1
    37     7    34    1
    38     7    35    1
    39    10    36    1
    40    15    37    1
    41    16    38    1
    42    17    39    1
    43    20    40    1
    44    21    41    1
    45    23    42    1
    46    24    43    1
    47    25    44    1
    48    28    45    1
    49    28    46    1
    50    28    47    1
@<TRIPOS>MOLECULE
343247
 47 50 0 0 0
SMALL
GASTEIGER

@<TRIPOS>ATOM
      1 C           3.1191    0.8304    2.8597 C.3     1  UNL1        0.0196
      2 N           3.3322    0.8218    1.4301 N.ar    1  UNL1       -0.2635
      3 C           2.7695   -0.1968    0.7233 C.ar    1  UNL1        0.2643
      4 O           2.0977   -1.0791    1.3261 O.2     1  UNL1       -0.2668
      5 C           2.9038   -0.3094   -0.6420 C.ar    1  UNL1        0.0668
      6 C           2.3265   -1.3524   -1.3295 C.ar    1  UNL1       -0.0243
      7 C           1.5287   -2.3784   -0.6700 C.3     1  UNL1        0.0503
      8 C           0.1617   -1.9735   -0.3319 C.2     1  UNL1        0.2230
      9 O          -0.2298   -0.8216   -0.6412 O.2     1  UNL1       -0.2751
     10 N          -0.7596   -2.7964    0.3258 N.am    1  UNL1       -0.2644
     11 C          -2.0917   -2.3395    0.6309 C.ar    1  UNL1        0.1649
     12 N          -2.8450   -1.3993    0.5339 N.ar    1  UNL1       -0.2245
     13 C          -4.0632   -1.2884    0.9354 C.ar    1  UNL1        0.0830
     14 C          -4.8720   -0.0603    0.7450 C.ar    1  UNL1        0.0376
     15 C          -4.3105    1.0235    0.1154 C.ar    1  UNL1       -0.0497
     16 C          -4.9844    2.2067   -0.1072 C.ar    1  UNL1       -0.0596
     17 C          -6.2874    2.3111    0.3222 C.ar    1  UNL1       -0.0406
     18 C          -6.8528    1.2349    0.9502 C.ar    1  UNL1        0.0767
     19 CL         -8.5091    1.3801    1.4901 Cl      1  UNL1       -0.0806
     20 C          -6.1609    0.0340    1.1733 C.ar    1  UNL1        0.1508
     21 F          -6.8359   -0.9372    1.7990 F       1  UNL1       -0.2033
     22 C          -4.5927   -2.4433    1.5865 C.ar    1  UNL1        0.0050
     23 S          -3.2163   -3.5492    1.5212 S.2     1  UNL1       -0.0599
     24 C           2.5409   -1.3579   -2.7160 C.ar    1  UNL1       -0.0573
     25 C           3.2706   -0.4036   -3.3730 C.ar    1  UNL1       -0.0595
     26 C           3.8252    0.6154   -2.6455 C.ar    1  UNL1       -0.0373
     27 C           3.6473    0.6702   -1.2830 C.ar    1  UNL1        0.0586
     28 N           4.2011    1.6754   -0.5761 N.ar    1  UNL1       -0.2962
     29 C           4.9790    2.6901   -1.2899 C.3     1  UNL1        0.0167
     30 C           4.0346    1.7308    0.7511 C.ar    1  UNL1        0.3319
     31 O           4.5660    2.6913    1.4113 O.2     1  UNL1       -0.2463
     32 H           2.9945   -0.1990    3.2604 H       1  UNL1        0.0458
     33 H           2.1688    1.3653    3.0966 H       1  UNL1        0.0458
     34 H           3.9819    1.3395    3.3405 H       1  UNL1        0.0458
     35 H           1.3748   -3.1943   -1.4637 H       1  UNL1        0.0407
     36 H           2.0345   -2.9678    0.1200 H       1  UNL1        0.0407
     37 H          -0.4348   -3.7615    0.5865 H       1  UNL1        0.1567
     38 H          -3.2693    1.0003   -0.2513 H       1  UNL1        0.0625
     39 H          -4.4870    3.0224   -0.6083 H       1  UNL1        0.0618
     40 H          -6.8081    3.2414    0.1439 H       1  UNL1        0.0633
     41 H          -5.5841   -2.6161    2.0177 H       1  UNL1        0.0716
     42 H           2.0806   -2.1875   -3.2561 H       1  UNL1        0.0621
     43 H           3.4123   -0.4487   -4.4620 H       1  UNL1        0.0618
     44 H           4.4110    1.3856   -3.1571 H       1  UNL1        0.0638
     45 H           5.3610    3.4173   -0.5553 H       1  UNL1        0.0457
     46 H           4.2727    3.1853   -1.9981 H       1  UNL1        0.0457
     47 H           5.7986    2.1882   -1.8392 H       1  UNL1        0.0457
@<TRIPOS>BOND
     1     1     2    1
     2     2     3   ar
     3     3     4    2
     4     3     5   ar
     5     5     6   ar
     6     6     7    1
     7     7     8    1
     8     8     9    2
     9     8    10   am
    10    10    11    1
    11    11    12   ar
    12    12    13   ar
    13    13    14    1
    14    14    15   ar
    15    15    16   ar
    16    16    17   ar
    17    17    18   ar
    18    18    19    1
    19    18    20   ar
    20    20    21    1
    21    13    22   ar
    22    22    23   ar
    23     6    24   ar
    24    24    25   ar
    25    25    26   ar
    26    26    27   ar
    27    27    28   ar
    28    28    29    1
    29    28    30   ar
    30    30    31    2
    31    30     2   ar
    32    27     5   ar
    33    23    11   ar
    34    20    14   ar
    35     1    32    1
    36     1    33    1
    37     1    34    1
    38     7    35    1
    39     7    36    1
    40    10    37    1
    41    15    38    1
    42    16    39    1
    43    17    40    1
    44    22    41    1
    45    24    42    1
    46    25    43    1
    47    26    44    1
    48    29    45    1
    49    29    46    1
    50    29    47    1
@<TRIPOS>MOLECULE
343249
 47 50 0 0 0
SMALL
GASTEIGER

@<TRIPOS>ATOM
      1 C          -5.7211    2.2000   -2.2228 C.3     1  UNL1        0.0196
      2 N          -5.1631    1.2856   -1.2420 N.ar    1  UNL1       -0.2635
      3 C          -3.8774    1.3029   -0.8796 C.ar    1  UNL1        0.2643
      4 O          -3.1148    2.1453   -1.4144 O.2     1  UNL1       -0.2668
      5 C          -3.3295    0.4395    0.0605 C.ar    1  UNL1        0.0668
      6 C          -2.0096    0.4532    0.4354 C.ar    1  UNL1       -0.0243
      7 C          -1.0783    1.4056   -0.2439 C.3     1  UNL1        0.0503
      8 C           0.3091    1.1538    0.3214 C.2     1  UNL1        0.2230
      9 O           0.6104    1.7984    1.3577 O.2     1  UNL1       -0.2751
     10 N           1.1374    0.2410   -0.3218 N.am    1  UNL1       -0.2644
     11 C           2.4658   -0.0424    0.1779 C.ar    1  UNL1        0.1649
     12 N           3.5837   -0.0651   -0.1167 N.ar    1  UNL1       -0.2245
     13 C           4.6388   -0.3909    0.5880 C.ar    1  UNL1        0.0831
     14 C           6.0012   -0.4215   -0.0061 C.ar    1  UNL1        0.0390
     15 C           7.0918   -0.7432    0.7827 C.ar    1  UNL1       -0.0496
     16 C           8.3684   -0.8204    0.2509 C.ar    1  UNL1       -0.0582
     17 C           8.5759   -0.5760   -1.0864 C.ar    1  UNL1       -0.0235
     18 C           7.4805   -0.2539   -1.8676 C.ar    1  UNL1        0.1591
     19 F           7.6923   -0.0288   -3.2094 F       1  UNL1       -0.2025
     20 C           6.2184   -0.1756   -1.3513 C.ar    1  UNL1        0.1675
     21 F           5.1724    0.1413   -2.1527 F       1  UNL1       -0.2018
     22 C           4.3953   -0.7592    1.8784 C.ar    1  UNL1        0.0050
     23 S           2.5797   -0.6092    1.9996 S.2     1  UNL1       -0.0599
     24 C          -1.5337   -0.4435    1.3823 C.ar    1  UNL1       -0.0573
     25 C          -2.4111   -1.3320    1.9273 C.ar    1  UNL1       -0.0595
     26 C          -3.7463   -1.3743    1.5717 C.ar    1  UNL1       -0.0373
     27 C          -4.1936   -0.4913    0.6441 C.ar    1  UNL1        0.0586
     28 N          -5.4956   -0.5005    0.2691 N.ar    1  UNL1       -0.2962
     29 C          -6.3586   -1.4964    0.9038 C.3     1  UNL1        0.0167
     30 C          -5.9617    0.3611   -0.6452 C.ar    1  UNL1        0.3319
     31 O          -7.1830    0.3455   -0.9926 O.2     1  UNL1       -0.2463
     32 H          -5.3141    2.0179   -3.2518 H       1  UNL1        0.0458
     33 H          -5.5581    3.2636   -1.9357 H       1  UNL1        0.0458
     34 H          -6.8144    2.0608   -2.2890 H       1  UNL1        0.0458
     35 H          -1.2931    2.4584   -0.0137 H       1  UNL1        0.0407
     36 H          -0.9897    1.1790   -1.3226 H       1  UNL1        0.0407
     37 H           0.8060   -0.2623   -1.1932 H       1  UNL1        0.1567
     38 H           6.9622   -0.9419    1.8264 H       1  UNL1        0.0625
     39 H           9.2228   -1.0770    0.9012 H       1  UNL1        0.0619
     40 H           9.5482   -0.6207   -1.5741 H       1  UNL1        0.0647
     41 H           5.0182   -1.0715    2.6988 H       1  UNL1        0.0716
     42 H          -0.4873   -0.3697    1.6210 H       1  UNL1        0.0621
     43 H          -2.0333   -2.0344    2.6691 H       1  UNL1        0.0618
     44 H          -4.4280   -2.0897    2.0121 H       1  UNL1        0.0638
     45 H          -5.9500   -2.5027    0.6313 H       1  UNL1        0.0457
     46 H          -7.3668   -1.4030    0.4417 H       1  UNL1        0.0457
     47 H          -6.4662   -1.3558    1.9798 H       1  UNL1        0.0457
@<TRIPOS>BOND
     1     1     2    1
     2     2     3   ar
     3     3     4    2
     4     3     5   ar
     5     5     6   ar
     6     6     7    1
     7     7     8    1
     8     8     9    2
     9     8    10   am
    10    10    11    1
    11    11    12   ar
    12    12    13   ar
    13    13    14    1
    14    14    15   ar
    15    15    16   ar
    16    16    17   ar
    17    17    18   ar
    18    18    19    1
    19    18    20   ar
    20    20    21    1
    21    13    22   ar
    22    22    23   ar
    23     6    24   ar
    24    24    25   ar
    25    25    26   ar
    26    26    27   ar
    27    27    28   ar
    28    28    29    1
    29    28    30   ar
    30    30    31    2
    31    30     2   ar
    32    27     5   ar
    33    23    11   ar
    34    20    14   ar
    35     1    32    1
    36     1    33    1
    37     1    34    1
    38     7    35    1
    39     7    36    1
    40    10    37    1
    41    15    38    1
    42    16    39    1
    43    17    40    1
    44    22    41    1
    45    24    42    1
    46    25    43    1
    47    26    44    1
    48    29    45    1
    49    29    46    1
    50    29    47    1
@<TRIPOS>MOLECULE
343248
 51 54 0 0 0
SMALL
GASTEIGER

@<TRIPOS>ATOM
      1 C          -6.3735    3.0597    1.2667 C.3     1  UNL1        0.0196
      2 N          -5.9596    1.7444    0.8148 N.ar    1  UNL1       -0.2635
      3 C          -4.6412    1.4188    0.7275 C.ar    1  UNL1        0.2643
      4 O          -3.7994    2.2809    1.0475 O.2     1  UNL1       -0.2668
      5 C          -4.2330    0.1748    0.2998 C.ar    1  UNL1        0.0668
      6 C          -2.8822   -0.1818    0.1983 C.ar    1  UNL1       -0.0243
      7 C          -1.8465    0.7983    0.5497 C.3     1  UNL1        0.0503
      8 C          -0.4990    0.2009    0.3990 C.2     1  UNL1        0.2230
      9 O          -0.1634   -0.7277    1.1669 O.2     1  UNL1       -0.2751
     10 N           0.4130    0.6523   -0.5892 N.am    1  UNL1       -0.2644
     11 C           1.7433    0.0606   -0.7372 C.ar    1  UNL1        0.1649
     12 N           2.8528    0.2707   -0.3143 N.ar    1  UNL1       -0.2246
     13 C           3.9319   -0.4043   -0.5892 C.ar    1  UNL1        0.0803
     14 C           5.2688   -0.0678   -0.0221 C.ar    1  UNL1        0.0044
     15 C           5.4645    0.9824    0.8417 C.ar    1  UNL1       -0.0523
     16 C           6.6811    1.3141    1.3627 C.ar    1  UNL1       -0.0577
     17 C           7.7671    0.5685    1.0124 C.ar    1  UNL1       -0.0196
     18 C           7.6351   -0.5006    0.1475 C.ar    1  UNL1        0.1306
     19 O           8.7814   -1.2065   -0.1593 O.3     1  UNL1       -0.4057
     20 C           9.5447   -0.7996   -1.2728 C.3     1  UNL1        0.5752
     21 F           9.9925    0.5209   -1.1551 F       1  UNL1       -0.1328
     22 F          10.6849   -1.6199   -1.3114 F       1  UNL1       -0.1328
     23 F           8.7889   -0.9337   -2.3967 F       1  UNL1       -0.1328
     24 C           6.3879   -0.7985   -0.3532 C.ar    1  UNL1       -0.0104
     25 C           3.7951   -1.4537   -1.4388 C.ar    1  UNL1        0.0049
     26 S           2.0032   -1.3834   -1.8011 S.2     1  UNL1       -0.0599
     27 C          -2.5814   -1.4477   -0.2428 C.ar    1  UNL1       -0.0573
     28 C          -3.5691   -2.3528   -0.5794 C.ar    1  UNL1       -0.0595
     29 C          -4.8960   -2.0168   -0.4847 C.ar    1  UNL1       -0.0373
     30 C          -5.2099   -0.7532   -0.0452 C.ar    1  UNL1        0.0586
     31 N          -6.5195   -0.4102    0.0483 N.ar    1  UNL1       -0.2962
     32 C          -7.5243   -1.3877   -0.3173 C.3     1  UNL1        0.0167
     33 C          -6.8876    0.8120    0.4692 C.ar    1  UNL1        0.3319
     34 O          -8.1030    1.1575    0.5651 O.2     1  UNL1       -0.2463
     35 H          -6.3853    3.8029    0.4220 H       1  UNL1        0.0458
     36 H          -5.7011    3.3873    2.0911 H       1  UNL1        0.0458
     37 H          -7.3996    3.0281    1.6908 H       1  UNL1        0.0458
     38 H          -1.9159    1.0875    1.6276 H       1  UNL1        0.0407
     39 H          -1.8705    1.7089   -0.1167 H       1  UNL1        0.0407
     40 H           0.1717    1.4324   -1.2604 H       1  UNL1        0.1567
     41 H           4.6052    1.5723    1.1194 H       1  UNL1        0.0624
     42 H           6.7756    2.1570    2.0417 H       1  UNL1        0.0619
     43 H           8.7396    0.8367    1.4298 H       1  UNL1        0.0654
     44 H           6.3071   -1.6364   -1.0282 H       1  UNL1        0.0661
     45 H           4.4765   -2.2014   -1.8636 H       1  UNL1        0.0716
     46 H          -1.5443   -1.7443   -0.3342 H       1  UNL1        0.0621
     47 H          -3.2830   -3.3367   -0.9207 H       1  UNL1        0.0618
     48 H          -5.6687   -2.7128   -0.7426 H       1  UNL1        0.0638
     49 H          -7.4299   -2.2945    0.3306 H       1  UNL1        0.0457
     50 H          -8.5458   -1.0128   -0.1926 H       1  UNL1        0.0457
     51 H          -7.3792   -1.6452   -1.3988 H       1  UNL1        0.0457
@<TRIPOS>BOND
     1     1     2    1
     2     2     3   ar
     3     3     4    2
     4     3     5   ar
     5     5     6   ar
     6     6     7    1
     7     7     8    1
     8     8     9    2
     9     8    10   am
    10    10    11    1
    11    11    12   ar
    12    12    13   ar
    13    13    14    1
    14    14    15   ar
    15    15    16   ar
    16    16    17   ar
    17    17    18   ar
    18    18    19    1
    19    19    20    1
    20    20    21    1
    21    20    22    1
    22    20    23    1
    23    18    24   ar
    24    13    25   ar
    25    25    26   ar
    26     6    27   ar
    27    27    28   ar
    28    28    29   ar
    29    29    30   ar
    30    30    31   ar
    31    31    32    1
    32    31    33   ar
    33    33    34    2
    34    33     2   ar
    35    30     5   ar
    36    26    11   ar
    37    24    14   ar
    38     1    35    1
    39     1    36    1
    40     1    37    1
    41     7    38    1
    42     7    39    1
    43    10    40    1
    44    15    41    1
    45    16    42    1
    46    17    43    1
    47    24    44    1
    48    25    45    1
    49    27    46    1
    50    28    47    1
    51    29    48    1
    52    32    49    1
    53    32    50    1
    54    32    51    1
@<TRIPOS>MOLECULE
343257
 55 58 0 0 0
SMALL
GASTEIGER

@<TRIPOS>ATOM
      1 C          -6.7035   -3.1300   -0.2552 C.3     1  UNL1        0.0196
      2 N          -6.6313   -1.7110    0.0966 N.ar    1  UNL1       -0.2623
      3 C          -5.5913   -1.1758    0.7386 C.ar    1  UNL1        0.2806
      4 O          -4.6340   -1.8953    1.0601 O.2     1  UNL1       -0.2652
      5 C          -5.5366    0.1790    1.0673 C.ar    1  UNL1        0.1316
      6 C          -6.6063    0.9510    0.7009 C.ar    1  UNL1        0.0761
      7 C          -6.3665    2.2549    1.1114 C.ar    1  UNL1       -0.0197
      8 C          -5.1410    2.2123    1.7183 C.ar    1  UNL1        0.0078
      9 N          -4.6403    0.9529    1.6901 N.ar    1  UNL1       -0.3324
     10 C          -3.3939    0.4880    2.2136 C.3     1  UNL1        0.1001
     11 C          -2.3519    0.6000    1.1716 C.2     1  UNL1        0.2384
     12 O          -2.6650    1.0538    0.0445 O.2     1  UNL1       -0.2735
     13 N          -1.0305    0.1965    1.4623 N.am    1  UNL1       -0.2632
     14 C          -0.0314    0.3095    0.4467 C.ar    1  UNL1        0.1649
     15 N           1.1599    0.0782    0.3172 N.ar    1  UNL1       -0.2246
     16 C           1.8924    0.2679   -0.7430 C.ar    1  UNL1        0.0803
     17 C           3.3567   -0.0362   -0.8437 C.ar    1  UNL1        0.0039
     18 C           4.0642    0.1890   -1.9920 C.ar    1  UNL1       -0.0305
     19 C           5.4302   -0.1110   -2.0379 C.ar    1  UNL1        0.0846
     20 CL          6.2975    0.1893   -3.5168 Cl      1  UNL1       -0.0797
     21 C           6.1046   -0.6328   -0.9563 C.ar    1  UNL1        0.1570
     22 O           7.4494   -0.9428   -0.9582 O.3     1  UNL1       -0.4887
     23 C           8.4447   -0.0054   -0.5842 C.3     1  UNL1        0.0979
     24 C           9.8246   -0.6269   -0.6835 C.3     1  UNL1        0.0769
     25 C          10.9076    0.3258   -0.2985 C.3     1  UNL1        0.3932
     26 F          10.9516    1.4510   -1.0772 F       1  UNL1       -0.1706
     27 F          12.1130   -0.3433   -0.3851 F       1  UNL1       -0.1706
     28 F          10.7835    0.7284    1.0296 F       1  UNL1       -0.1706
     29 C           5.3562   -0.8499    0.1957 C.ar    1  UNL1        0.0846
     30 CL          6.1313   -1.5064    1.6064 Cl      1  UNL1       -0.0797
     31 C           4.0210   -0.5556    0.2375 C.ar    1  UNL1       -0.0305
     32 C           1.2462    0.7912   -1.8483 C.ar    1  UNL1        0.0049
     33 S          -0.4314    0.9680   -1.2257 S.2     1  UNL1       -0.0599
     34 N          -7.6457    0.3640    0.0477 N.ar    1  UNL1       -0.2948
     35 C          -8.7492    1.2556   -0.3090 C.3     1  UNL1        0.0167
     36 C          -7.6605   -0.9459   -0.2510 C.ar    1  UNL1        0.3320
     37 O          -8.6626   -1.4097   -0.8581 O.2     1  UNL1       -0.2463
     38 H          -7.0548   -3.2484   -1.3143 H       1  UNL1        0.0458
     39 H          -7.4084   -3.6676    0.3925 H       1  UNL1        0.0458
     40 H          -5.7020   -3.5852   -0.1913 H       1  UNL1        0.0458
     41 H          -7.0400    3.0903    0.9584 H       1  UNL1        0.0653
     42 H          -4.6262    3.0676    2.1673 H       1  UNL1        0.0810
     43 H          -3.4866   -0.5507    2.6027 H       1  UNL1        0.0588
     44 H          -3.0727    1.1228    3.0698 H       1  UNL1        0.0588
     45 H          -0.7105   -0.1822    2.3628 H       1  UNL1        0.1568
     46 H           3.5604    0.5984   -2.8577 H       1  UNL1        0.0640
     47 H           8.3347    0.8851   -1.2379 H       1  UNL1        0.0699
     48 H           8.2176    0.3196    0.4407 H       1  UNL1        0.0699
     49 H           9.8371   -1.4632    0.0556 H       1  UNL1        0.0385
     50 H          10.0257   -1.0227   -1.6878 H       1  UNL1        0.0385
     51 H           3.4718   -0.7341    1.1398 H       1  UNL1        0.0640
     52 H           1.5842    1.0455   -2.8301 H       1  UNL1        0.0716
     53 H          -9.5176    0.6341   -0.8204 H       1  UNL1        0.0457
     54 H          -9.1174    1.7247    0.6186 H       1  UNL1        0.0457
     55 H          -8.3569    2.0382   -1.0012 H       1  UNL1        0.0457
@<TRIPOS>BOND
     1     1     2    1
     2     2     3   ar
     3     3     4    2
     4     3     5   ar
     5     5     6   ar
     6     6     7   ar
     7     7     8   ar
     8     8     9   ar
     9     9    10    1
    10    10    11    1
    11    11    12    2
    12    11    13   am
    13    13    14    1
    14    14    15   ar
    15    15    16   ar
    16    16    17    1
    17    17    18   ar
    18    18    19   ar
    19    19    20    1
    20    19    21   ar
    21    21    22    1
    22    22    23    1
    23    23    24    1
    24    24    25    1
    25    25    26    1
    26    25    27    1
    27    25    28    1
    28    21    29   ar
    29    29    30    1
    30    29    31   ar
    31    16    32   ar
    32    32    33   ar
    33     6    34   ar
    34    34    35    1
    35    34    36   ar
    36    36    37    2
    37    36     2   ar
    38     9     5   ar
    39    33    14   ar
    40    31    17   ar
    41     1    38    1
    42     1    39    1
    43     1    40    1
    44     7    41    1
    45     8    42    1
    46    10    43    1
    47    10    44    1
    48    13    45    1
    49    18    46    1
    50    23    47    1
    51    23    48    1
    52    24    49    1
    53    24    50    1
    54    31    51    1
    55    32    52    1
    56    35    53    1
    57    35    54    1
    58    35    55    1
@<TRIPOS>MOLECULE
343258
 48 51 0 0 0
SMALL
GASTEIGER

@<TRIPOS>ATOM
      1 C          -5.6728    2.0210    1.6509 C.3     1  UNL1        0.0196
      2 N          -5.2765    1.1243    0.5848 N.ar    1  UNL1       -0.2623
      3 C          -4.2660    0.2503    0.7419 C.ar    1  UNL1        0.2806
      4 O          -3.6469    0.2038    1.8335 O.2     1  UNL1       -0.2652
      5 C          -3.8821   -0.6120   -0.2776 C.ar    1  UNL1        0.1316
      6 C          -4.6030   -0.5112   -1.4539 C.ar    1  UNL1        0.0761
      7 C          -4.0718   -1.4387   -2.3242 C.ar    1  UNL1       -0.0197
      8 C          -3.0550   -2.0581   -1.6368 C.ar    1  UNL1        0.0078
      9 N          -2.9291   -1.5664   -0.3945 N.ar    1  UNL1       -0.3324
     10 C          -2.0197   -1.9058    0.6574 C.3     1  UNL1        0.1001
     11 C          -0.7778   -1.1077    0.6198 C.2     1  UNL1        0.2384
     12 O          -0.5395   -0.2256   -0.2394 O.2     1  UNL1       -0.2735
     13 N           0.2185   -1.3390    1.6079 N.am    1  UNL1       -0.2632
     14 C           1.4245   -0.5794    1.5894 C.ar    1  UNL1        0.1649
     15 N           2.5408   -0.5578    1.1569 N.ar    1  UNL1       -0.2246
     16 C           3.4638    0.3200    1.3235 C.ar    1  UNL1        0.0803
     17 C           4.8466    0.2750    0.7440 C.ar    1  UNL1        0.0037
     18 C           5.2157   -0.7998   -0.0584 C.ar    1  UNL1       -0.0518
     19 C           6.4910   -0.8517   -0.5992 C.ar    1  UNL1       -0.0467
     20 C           7.4091    0.1447   -0.3585 C.ar    1  UNL1        0.0899
     21 C           8.7612    0.0718   -0.9428 C.3     1  UNL1        0.4201
     22 F           9.6709    0.0616    0.1099 F       1  UNL1       -0.1658
     23 F           9.0400    1.1560   -1.7255 F       1  UNL1       -0.1658
     24 F           8.9118   -1.1107   -1.6598 F       1  UNL1       -0.1658
     25 C           7.0501    1.2029    0.4298 C.ar    1  UNL1        0.1356
     26 F           7.9476    2.1769    0.6651 F       1  UNL1       -0.2049
     27 C           5.7672    1.2533    0.9727 C.ar    1  UNL1       -0.0167
     28 C           3.1430    1.4274    2.1266 C.ar    1  UNL1        0.0049
     29 S           1.4336    1.0345    2.5695 S.2     1  UNL1       -0.0599
     30 N          -5.6171    0.3609   -1.6216 N.ar    1  UNL1       -0.2948
     31 C          -6.3678    0.4565   -2.8652 C.3     1  UNL1        0.0167
     32 C          -5.9346    1.1679   -0.5873 C.ar    1  UNL1        0.3320
     33 O          -6.8847    1.9969   -0.7202 O.2     1  UNL1       -0.2463
     34 H          -5.8272    3.0569    1.2640 H       1  UNL1        0.0458
     35 H          -6.6601    1.7029    2.0715 H       1  UNL1        0.0458
     36 H          -4.9407    2.0497    2.4692 H       1  UNL1        0.0458
     37 H          -4.4105   -1.6235   -3.3494 H       1  UNL1        0.0653
     38 H          -2.4284   -2.8409   -2.0297 H       1  UNL1        0.0810
     39 H          -1.7007   -2.9833    0.5556 H       1  UNL1        0.0588
     40 H          -2.5494   -1.8479    1.6186 H       1  UNL1        0.0588
     41 H           0.1198   -2.0473    2.3646 H       1  UNL1        0.1568
     42 H           4.4755   -1.5688   -0.2316 H       1  UNL1        0.0624
     43 H           6.7370   -1.7013   -1.2153 H       1  UNL1        0.0624
     44 H           5.5153    2.1074    1.5939 H       1  UNL1        0.0653
     45 H           3.6839    2.2486    2.4112 H       1  UNL1        0.0716
     46 H          -6.5502   -0.5796   -3.2172 H       1  UNL1        0.0457
     47 H          -5.8815    1.1028   -3.6016 H       1  UNL1        0.0457
     48 H          -7.3738    0.8827   -2.6247 H       1  UNL1        0.0457
@<TRIPOS>BOND
     1     1     2    1
     2     2     3   ar
     3     3     4    2
     4     3     5   ar
     5     5     6   ar
     6     6     7   ar
     7     7     8   ar
     8     8     9   ar
     9     9    10    1
    10    10    11    1
    11    11    12    2
    12    11    13   am
    13    13    14    1
    14    14    15   ar
    15    15    16   ar
    16    16    17    1
    17    17    18   ar
    18    18    19   ar
    19    19    20   ar
    20    20    21    1
    21    21    22    1
    22    21    23    1
    23    21    24    1
    24    20    25   ar
    25    25    26    1
    26    25    27   ar
    27    16    28   ar
    28    28    29   ar
    29     6    30   ar
    30    30    31    1
    31    30    32   ar
    32    32    33    2
    33    32     2   ar
    34     9     5   ar
    35    29    14   ar
    36    27    17   ar
    37     1    34    1
    38     1    35    1
    39     1    36    1
    40     7    37    1
    41     8    38    1
    42    10    39    1
    43    10    40    1
    44    13    41    1
    45    18    42    1
    46    19    43    1
    47    27    44    1
    48    28    45    1
    49    31    46    1
    50    31    47    1
    51    31    48    1
@<TRIPOS>MOLECULE
343256
 49 52 0 0 0
SMALL
GASTEIGER

@<TRIPOS>ATOM
      1 C          -5.8151   -2.0498    1.4282 C.3     1  UNL1        0.0196
      2 N          -5.3210   -0.9136    0.6372 N.ar    1  UNL1       -0.2623
      3 C          -4.3361   -0.1548    1.1313 C.ar    1  UNL1        0.2806
      4 O          -3.7985   -0.3671    2.2625 O.2     1  UNL1       -0.2652
      5 C          -3.8579    0.9164    0.4050 C.ar    1  UNL1        0.1316
      6 C          -4.4380    1.1559   -0.8300 C.ar    1  UNL1        0.0761
      7 C          -3.7866    2.2678   -1.3420 C.ar    1  UNL1       -0.0197
      8 C          -2.8515    2.6550   -0.4147 C.ar    1  UNL1        0.0078
      9 N          -2.8916    1.8399    0.6434 N.ar    1  UNL1       -0.3324
     10 C          -2.0715    1.9118    1.8250 C.3     1  UNL1        0.1001
     11 C          -0.8402    1.1176    1.6609 C.2     1  UNL1        0.2384
     12 O          -0.0122    1.0840    2.6250 O.2     1  UNL1       -0.2735
     13 N          -0.5035    0.3825    0.5040 N.am    1  UNL1       -0.2632
     14 C           0.7496   -0.3639    0.4696 C.ar    1  UNL1        0.1649
     15 N           1.8513   -0.3074    0.2013 N.ar    1  UNL1       -0.2246
     16 C           2.8198   -1.1979    0.2795 C.ar    1  UNL1        0.0802
     17 C           4.2107   -0.9423   -0.1209 C.ar    1  UNL1        0.0012
     18 C           5.1783   -1.9182   -0.0139 C.ar    1  UNL1       -0.0491
     19 C           6.5013   -1.6954   -0.3879 C.ar    1  UNL1       -0.0190
     20 C           6.8889   -0.4762   -0.8832 C.ar    1  UNL1        0.1300
     21 O           8.2065   -0.2140   -1.2692 O.3     1  UNL1       -0.4057
     22 C           9.0609    0.2998   -0.2513 C.3     1  UNL1        0.5752
     23 F           8.5027    1.5028    0.1860 F       1  UNL1       -0.1328
     24 F          10.3115    0.5121   -0.7984 F       1  UNL1       -0.1328
     25 F           9.1019   -0.5416    0.8378 F       1  UNL1       -0.1328
     26 C           5.9339    0.5116   -0.9970 C.ar    1  UNL1       -0.0190
     27 C           4.6339    0.2724   -0.6226 C.ar    1  UNL1       -0.0491
     28 C           2.3927   -2.3960    0.7765 C.ar    1  UNL1        0.0049
     29 S           0.6641   -2.1837    1.0969 S.2     1  UNL1       -0.0599
     30 N          -5.4286    0.3810   -1.3108 N.ar    1  UNL1       -0.2948
     31 C          -5.9778    0.6982   -2.6043 C.3     1  UNL1        0.0167
     32 C          -5.8614   -0.6526   -0.5652 C.ar    1  UNL1        0.3320
     33 O          -6.7819   -1.3570   -1.0336 O.2     1  UNL1       -0.2463
     34 H          -6.8783   -2.1947    1.2294 H       1  UNL1        0.0458
     35 H          -5.2261   -2.9460    1.0943 H       1  UNL1        0.0458
     36 H          -5.5959   -1.9025    2.5075 H       1  UNL1        0.0458
     37 H          -4.0220    2.6999   -2.3037 H       1  UNL1        0.0653
     38 H          -2.1643    3.5031   -0.5083 H       1  UNL1        0.0810
     39 H          -2.6510    1.6202    2.7309 H       1  UNL1        0.0588
     40 H          -1.7547    2.9771    1.9921 H       1  UNL1        0.0588
     41 H          -1.1530    0.3908   -0.2910 H       1  UNL1        0.1568
     42 H           4.8720   -2.8823    0.3777 H       1  UNL1        0.0625
     43 H           7.2148   -2.5049   -0.2790 H       1  UNL1        0.0654
     44 H           6.2690    1.4686   -1.3927 H       1  UNL1        0.0654
     45 H           3.9119    1.0733   -0.7267 H       1  UNL1        0.0625
     46 H           3.0094   -3.3725    0.9631 H       1  UNL1        0.0716
     47 H          -5.1864    0.5577   -3.3903 H       1  UNL1        0.0457
     48 H          -6.3007    1.7532   -2.6951 H       1  UNL1        0.0457
     49 H          -6.7794   -0.0184   -2.8337 H       1  UNL1        0.0457
@<TRIPOS>BOND
     1     1     2    1
     2     2     3   ar
     3     3     4    2
     4     3     5   ar
     5     5     6   ar
     6     6     7   ar
     7     7     8   ar
     8     8     9   ar
     9     9    10    1
    10    10    11    1
    11    11    12    2
    12    11    13   am
    13    13    14    1
    14    14    15   ar
    15    15    16   ar
    16    16    17    1
    17    17    18   ar
    18    18    19   ar
    19    19    20   ar
    20    20    21    1
    21    21    22    1
    22    22    23    1
    23    22    24    1
    24    22    25    1
    25    20    26   ar
    26    26    27   ar
    27    16    28   ar
    28    28    29   ar
    29     6    30   ar
    30    30    31    1
    31    30    32   ar
    32    32    33    2
    33    32     2   ar
    34     9     5   ar
    35    29    14   ar
    36    27    17   ar
    37     1    34    1
    38     1    35    1
    39     1    36    1
    40     7    37    1
    41     8    38    1
    42    10    39    1
    43    10    40    1
    44    13    41    1
    45    18    42    1
    46    19    43    1
    47    26    44    1
    48    27    45    1
    49    28    46    1
    50    31    47    1
    51    31    48    1
    52    31    49    1
@<TRIPOS>MOLECULE
343259
 60 63 0 0 0
SMALL
GASTEIGER

@<TRIPOS>ATOM
      1 C           7.0143   -0.5613   -2.8044 C.3     1  UNL1        0.0196
      2 N           7.0429   -0.0832   -1.4313 N.ar    1  UNL1       -0.2622
      3 C           6.1706   -0.5752   -0.5255 C.ar    1  UNL1        0.2821
      4 O           5.3574   -1.4414   -0.9110 O.2     1  UNL1       -0.2652
      5 C           6.1756   -0.1418    0.7741 C.ar    1  UNL1        0.1502
      6 C           7.1105    0.8208    1.1262 C.ar    1  UNL1        0.0961
      7 C           6.9073    1.0690    2.4632 C.ar    1  UNL1        0.0738
      8 N           5.9060    0.3015    2.8985 N.ar    1  UNL1       -0.1764
      9 N           5.4591   -0.4375    1.8658 N.ar    1  UNL1       -0.2481
     10 C           4.3648   -1.3653    1.9638 C.3     1  UNL1        0.1189
     11 C           3.0697   -0.6890    1.7629 C.2     1  UNL1        0.2401
     12 O           2.5492   -0.1265    2.7849 O.2     1  UNL1       -0.2734
     13 N           2.3747   -0.6210    0.5391 N.am    1  UNL1       -0.2632
     14 C           1.0983    0.0841    0.4766 C.ar    1  UNL1        0.1650
     15 N          -0.0654   -0.1371    0.6088 N.ar    1  UNL1       -0.2246
     16 C          -1.0729    0.7010    0.4997 C.ar    1  UNL1        0.0803
     17 C          -2.4984    0.3430    0.6790 C.ar    1  UNL1        0.0039
     18 C          -3.4594    1.2955    0.5421 C.ar    1  UNL1       -0.0305
     19 C          -4.8257    1.0098    0.7005 C.ar    1  UNL1        0.0846
     20 CL         -6.0076    2.2677    0.5653 Cl      1  UNL1       -0.0797
     21 C          -5.1690   -0.2858    1.0021 C.ar    1  UNL1        0.1570
     22 O          -6.4741   -0.7294    1.1821 O.3     1  UNL1       -0.4885
     23 C          -7.2678   -1.3312    0.2545 C.3     1  UNL1        0.0946
     24 C          -7.6416   -0.6491   -1.0094 C.3     1  UNL1       -0.0036
     25 C          -6.4971   -0.2512   -1.8702 C.3     1  UNL1       -0.0570
     26 C          -8.4716   -1.6469   -1.8800 C.3     1  UNL1       -0.0570
     27 C          -8.5579    0.5295   -0.8085 C.3     1  UNL1       -0.0570
     28 C          -4.1598   -1.2584    1.1407 C.ar    1  UNL1        0.0846
     29 CL         -4.6624   -2.9096    1.5314 Cl      1  UNL1       -0.0797
     30 C          -2.8307   -0.9563    0.9823 C.ar    1  UNL1       -0.0305
     31 C          -0.7064    2.0068    0.1897 C.ar    1  UNL1        0.0049
     32 S           1.0758    1.8835    0.0875 S.2     1  UNL1       -0.0599
     33 N           7.9589    1.2838    0.1979 N.ar    1  UNL1       -0.2934
     34 C           8.9311    2.2903    0.5770 C.3     1  UNL1        0.0168
     35 C           7.9312    0.8416   -1.0678 C.ar    1  UNL1        0.3320
     36 O           8.7372    1.2871   -1.9320 O.2     1  UNL1       -0.2462
     37 H           6.6926   -1.6407   -2.7348 H       1  UNL1        0.0458
     38 H           8.0484   -0.6056   -3.2295 H       1  UNL1        0.0458
     39 H           6.3561    0.0242   -3.4537 H       1  UNL1        0.0458
     40 H           7.5143    1.7958    3.0075 H       1  UNL1        0.0869
     41 H           4.4844   -2.2181    1.2611 H       1  UNL1        0.0605
     42 H           4.3357   -1.8356    2.9846 H       1  UNL1        0.0605
     43 H           2.7665   -1.0690   -0.2946 H       1  UNL1        0.1568
     44 H          -3.2017    2.3399    0.2990 H       1  UNL1        0.0640
     45 H          -8.2512   -1.6249    0.7627 H       1  UNL1        0.0702
     46 H          -6.8840   -2.3584   -0.0625 H       1  UNL1        0.0702
     47 H          -5.5202   -0.6607   -1.5375 H       1  UNL1        0.0236
     48 H          -6.4987    0.8504   -1.9906 H       1  UNL1        0.0236
     49 H          -6.6420   -0.6518   -2.8931 H       1  UNL1        0.0236
     50 H          -7.7501   -2.3145   -2.3951 H       1  UNL1        0.0236
     51 H          -8.9432   -1.0189   -2.6555 H       1  UNL1        0.0236
     52 H          -9.1834   -2.1779   -1.2311 H       1  UNL1        0.0236
     53 H          -8.6166    0.7321    0.3001 H       1  UNL1        0.0236
     54 H          -8.1909    1.4361   -1.3423 H       1  UNL1        0.0236
     55 H          -9.5500    0.3064   -1.1927 H       1  UNL1        0.0236
     56 H          -2.0945   -1.7522    1.1022 H       1  UNL1        0.0640
     57 H          -1.3085    2.9066    0.0377 H       1  UNL1        0.0716
     58 H           8.5874    3.2935    0.2462 H       1  UNL1        0.0457
     59 H           9.0435    2.3508    1.6857 H       1  UNL1        0.0457
     60 H           9.9395    2.0744    0.1703 H       1  UNL1        0.0457
@<TRIPOS>BOND
     1     1     2    1
     2     2     3   ar
     3     3     4    2
     4     3     5   ar
     5     5     6   ar
     6     6     7   ar
     7     7     8   ar
     8     8     9   ar
     9     9    10    1
    10    10    11    1
    11    11    12    2
    12    11    13   am
    13    13    14    1
    14    14    15   ar
    15    15    16   ar
    16    16    17    1
    17    17    18   ar
    18    18    19   ar
    19    19    20    1
    20    19    21   ar
    21    21    22    1
    22    22    23    1
    23    23    24    1
    24    24    25    1
    25    24    26    1
    26    24    27    1
    27    21    28   ar
    28    28    29    1
    29    28    30   ar
    30    16    31   ar
    31    31    32   ar
    32     6    33   ar
    33    33    34    1
    34    33    35   ar
    35    35    36    2
    36    35     2   ar
    37     9     5   ar
    38    32    14   ar
    39    30    17   ar
    40     1    37    1
    41     1    38    1
    42     1    39    1
    43     7    40    1
    44    10    41    1
    45    10    42    1
    46    13    43    1
    47    18    44    1
    48    23    45    1
    49    23    46    1
    50    25    47    1
    51    25    48    1
    52    25    49    1
    53    26    50    1
    54    26    51    1
    55    26    52    1
    56    27    53    1
    57    27    54    1
    58    27    55    1
    59    30    56    1
    60    31    57    1
    61    34    58    1
    62    34    59    1
    63    34    60    1
@<TRIPOS>MOLECULE
343223
 46 50 0 0 0
SMALL
GASTEIGER

@<TRIPOS>ATOM
      1 C          -3.2496   -0.7802    2.9340 C.3     1  UNL1        0.0575
      2 N          -3.3276   -0.4693    1.5335 N.am    1  UNL1       -0.1592
      3 C          -2.6142   -1.2483    0.5901 C.2     1  UNL1        0.3299
      4 O          -1.8959   -2.2299    0.9536 O.2     1  UNL1       -0.2496
      5 C          -2.7154   -0.9061   -0.8189 C.ar    1  UNL1        0.1792
      6 C          -3.4937    0.1569   -1.2085 C.ar    1  UNL1        0.2188
      7 N          -3.3845    0.2177   -2.5524 N.ar    1  UNL1       -0.2059
      8 C          -2.5688   -0.7747   -2.9537 C.ar    1  UNL1        0.1005
      9 N          -2.1357   -1.4919   -1.9001 N.ar    1  UNL1       -0.3136
     10 C          -1.2469   -2.6381   -1.9063 C.3     1  UNL1        0.1015
     11 C           0.1800   -2.2028   -1.7804 C.2     1  UNL1        0.2385
     12 O           1.0711   -3.0892   -1.7711 O.2     1  UNL1       -0.2735
     13 N           0.5619   -0.8449   -1.6724 N.am    1  UNL1       -0.2632
     14 C           1.9127   -0.4289   -1.5530 C.ar    1  UNL1        0.1649
     15 N           2.7073   -0.2123   -0.7485 N.ar    1  UNL1       -0.2246
     16 C           3.9552    0.1799   -0.8458 C.ar    1  UNL1        0.0802
     17 C           4.8611    0.4193    0.2708 C.ar    1  UNL1        0.0010
     18 C           6.1670    0.8333    0.0742 C.ar    1  UNL1       -0.0515
     19 C           7.0088    1.0545    1.1426 C.ar    1  UNL1       -0.0471
     20 C           6.5428    0.8606    2.4234 C.ar    1  UNL1        0.0179
     21 BR          7.6672    1.1529    3.9344 Br      1  UNL1       -0.0503
     22 C           5.2460    0.4481    2.6537 C.ar    1  UNL1       -0.0471
     23 C           4.4284    0.2351    1.5656 C.ar    1  UNL1       -0.0515
     24 C           4.3868    0.3641   -2.1513 C.ar    1  UNL1        0.0049
     25 S           2.9153   -0.0569   -3.1243 S.2     1  UNL1       -0.0599
     26 N          -4.2240    0.9609   -0.2857 N.pl3   1  UNL1       -0.1706
     27 C          -5.0973    2.1086   -0.4234 C.3     1  UNL1        0.1011
     28 C          -5.5080    2.4270    0.9868 C.3     1  UNL1        0.1334
     29 N          -4.8404    1.4437    1.7967 N.2     1  UNL1       -0.1133
     30 C          -4.1333    0.6357    1.1003 C.2     1  UNL1        0.3823
     31 H          -2.8144   -1.7770    3.1013 H       1  UNL1        0.0602
     32 H          -2.6648    0.0306    3.4241 H       1  UNL1        0.0602
     33 H          -4.2736   -0.7161    3.3885 H       1  UNL1        0.0602
     34 H          -2.2888   -0.9827   -3.9755 H       1  UNL1        0.1030
     35 H          -1.4428   -3.3286   -1.0660 H       1  UNL1        0.0588
     36 H          -1.3592   -3.2152   -2.8464 H       1  UNL1        0.0588
     37 H          -0.1663   -0.0951   -1.6785 H       1  UNL1        0.1568
     38 H           6.5105    0.9780   -0.9167 H       1  UNL1        0.0624
     39 H           8.0354    1.3787    1.0227 H       1  UNL1        0.0629
     40 H           4.8936    0.2998    3.6649 H       1  UNL1        0.0629
     41 H           3.4222   -0.0856    1.7616 H       1  UNL1        0.0624
     42 H           5.3429    0.6773   -2.5617 H       1  UNL1        0.0716
     43 H          -5.9716    1.8857   -1.0695 H       1  UNL1        0.0671
     44 H          -4.5713    2.9807   -0.8604 H       1  UNL1        0.0671
     45 H          -5.1997    3.4654    1.2525 H       1  UNL1        0.0723
     46 H          -6.6284    2.3793    1.0939 H       1  UNL1        0.0723
@<TRIPOS>BOND
     1     1     2    1
     2     2     3   am
     3     3     4    2
     4     3     5    1
     5     5     6   ar
     6     6     7   ar
     7     7     8   ar
     8     8     9   ar
     9     9    10    1
    10    10    11    1
    11    11    12    2
    12    11    13   am
    13    13    14    1
    14    14    15   ar
    15    15    16   ar
    16    16    17    1
    17    17    18   ar
    18    18    19   ar
    19    19    20   ar
    20    20    21    1
    21    20    22   ar
    22    22    23   ar
    23    16    24   ar
    24    24    25   ar
    25     6    26    1
    26    26    27    1
    27    27    28    1
    28    28    29    1
    29    29    30    2
    30    30     2    1
    31     9     5   ar
    32    25    14   ar
    33    30    26    1
    34    23    17   ar
    35     1    31    1
    36     1    32    1
    37     1    33    1
    38     8    34    1
    39    10    35    1
    40    10    36    1
    41    13    37    1
    42    18    38    1
    43    19    39    1
    44    22    40    1
    45    23    41    1
    46    24    42    1
    47    27    43    1
    48    27    44    1
    49    28    45    1
    50    28    46    1
@<TRIPOS>MOLECULE
343224
 58 62 0 0 0
SMALL
GASTEIGER

@<TRIPOS>ATOM
      1 C          -6.8564   -2.5590    0.2086 C.3     1  UNL1        0.0575
      2 N          -6.3595   -1.2005    0.1369 N.am    1  UNL1       -0.1592
      3 C          -5.3741   -0.7423    1.0522 C.2     1  UNL1        0.3299
      4 O          -4.9571   -1.5688    1.9221 O.2     1  UNL1       -0.2496
      5 C          -4.8711    0.6258    0.9831 C.ar    1  UNL1        0.1792
      6 C          -5.3737    1.4648    0.0088 C.ar    1  UNL1        0.2188
      7 N          -4.7307    2.6363    0.1936 N.ar    1  UNL1       -0.2059
      8 C          -3.8818    2.5139    1.2267 C.ar    1  UNL1        0.1005
      9 N          -3.9549    1.2679    1.7319 N.ar    1  UNL1       -0.3136
     10 C          -3.2004    0.7219    2.8569 C.3     1  UNL1        0.1015
     11 C          -1.9433    0.1203    2.4004 C.2     1  UNL1        0.2385
     12 O          -1.1833   -0.3939    3.2617 O.2     1  UNL1       -0.2735
     13 N          -1.5157    0.0743    1.0443 N.am    1  UNL1       -0.2632
     14 C          -0.2618   -0.5378    0.6804 C.ar    1  UNL1        0.1649
     15 N           0.8767   -0.3645    0.5153 N.ar    1  UNL1       -0.2246
     16 C           1.8369   -1.1705    0.1601 C.ar    1  UNL1        0.0802
     17 C           3.2545   -0.7754   -0.0047 C.ar    1  UNL1        0.0010
     18 C           4.2115   -1.6768   -0.3810 C.ar    1  UNL1       -0.0523
     19 C           5.5408   -1.3539   -0.5463 C.ar    1  UNL1       -0.0574
     20 C           5.9460   -0.0610   -0.3258 C.ar    1  UNL1       -0.0419
     21 C           7.3680    0.3654   -0.4844 C.3     1  UNL1       -0.0127
     22 C           8.2071   -0.8334   -0.9073 C.3     1  UNL1       -0.0560
     23 C           7.9017    0.8913    0.8182 C.3     1  UNL1       -0.0560
     24 C           7.4445    1.3835   -1.5966 C.3     1  UNL1       -0.0560
     25 C           4.9951    0.8613    0.0541 C.ar    1  UNL1       -0.0574
     26 C           3.6734    0.5188    0.2136 C.ar    1  UNL1       -0.0523
     27 C           1.3871   -2.4934   -0.0592 C.ar    1  UNL1        0.0049
     28 S          -0.3290   -2.4195    0.2657 S.2     1  UNL1       -0.0599
     29 N          -6.3652    1.0476   -0.9328 N.pl3   1  UNL1       -0.1706
     30 C          -7.0413    1.7051   -2.0205 C.3     1  UNL1        0.1011
     31 C          -7.9584    0.6599   -2.5798 C.3     1  UNL1        0.1334
     32 N          -7.7233   -0.4973   -1.7624 N.2     1  UNL1       -0.1133
     33 C          -6.8412   -0.2792   -0.8522 C.2     1  UNL1        0.3823
     34 H          -7.7803   -2.5532    0.8183 H       1  UNL1        0.0602
     35 H          -7.1611   -2.8894   -0.8088 H       1  UNL1        0.0602
     36 H          -6.0898   -3.2004    0.6632 H       1  UNL1        0.0602
     37 H          -3.2094    3.2727    1.6403 H       1  UNL1        0.1030
     38 H          -3.0579    1.5005    3.6499 H       1  UNL1        0.0588
     39 H          -3.8516   -0.0517    3.3203 H       1  UNL1        0.0588
     40 H          -2.1431    0.4983    0.3364 H       1  UNL1        0.1568
     41 H           3.8946   -2.7185   -0.5604 H       1  UNL1        0.0624
     42 H           6.2683   -2.0924   -0.8444 H       1  UNL1        0.0621
     43 H           7.7965   -1.2234   -1.8789 H       1  UNL1        0.0238
     44 H           9.2563   -0.5531   -1.0800 H       1  UNL1        0.0238
     45 H           8.1850   -1.6292   -0.1519 H       1  UNL1        0.0238
     46 H           7.6551    1.9706    0.8784 H       1  UNL1        0.0238
     47 H           7.3769    0.3872    1.6523 H       1  UNL1        0.0238
     48 H           8.9798    0.7131    0.9362 H       1  UNL1        0.0238
     49 H           6.8062    2.2661   -1.4093 H       1  UNL1        0.0238
     50 H           7.0648    0.8919   -2.5140 H       1  UNL1        0.0238
     51 H           8.5035    1.6601   -1.7380 H       1  UNL1        0.0238
     52 H           5.2798    1.9001    0.2386 H       1  UNL1        0.0621
     53 H           2.9197    1.2565    0.5162 H       1  UNL1        0.0624
     54 H           2.0335   -3.4002   -0.3809 H       1  UNL1        0.0716
     55 H          -7.6819    2.5419   -1.6127 H       1  UNL1        0.0671
     56 H          -6.3348    2.1058   -2.7794 H       1  UNL1        0.0671
     57 H          -7.6077    0.4358   -3.6098 H       1  UNL1        0.0723
     58 H          -9.0232    0.9802   -2.5653 H       1  UNL1        0.0723
@<TRIPOS>BOND
     1     1     2    1
     2     2     3   am
     3     3     4    2
     4     3     5    1
     5     5     6   ar
     6     6     7   ar
     7     7     8   ar
     8     8     9   ar
     9     9    10    1
    10    10    11    1
    11    11    12    2
    12    11    13   am
    13    13    14    1
    14    14    15   ar
    15    15    16   ar
    16    16    17    1
    17    17    18   ar
    18    18    19   ar
    19    19    20   ar
    20    20    21    1
    21    21    22    1
    22    21    23    1
    23    21    24    1
    24    20    25   ar
    25    25    26   ar
    26    16    27   ar
    27    27    28   ar
    28     6    29    1
    29    29    30    1
    30    30    31    1
    31    31    32    1
    32    32    33    2
    33    33     2    1
    34     9     5   ar
    35    28    14   ar
    36    33    29    1
    37    26    17   ar
    38     1    34    1
    39     1    35    1
    40     1    36    1
    41     8    37    1
    42    10    38    1
    43    10    39    1
    44    13    40    1
    45    18    41    1
    46    19    42    1
    47    22    43    1
    48    22    44    1
    49    22    45    1
    50    23    46    1
    51    23    47    1
    52    23    48    1
    53    24    49    1
    54    24    50    1
    55    24    51    1
    56    25    52    1
    57    26    53    1
    58    27    54    1
    59    30    55    1
    60    30    56    1
    61    31    57    1
    62    31    58    1
@<TRIPOS>MOLECULE
343316
 59 62 0 0 0
SMALL
GASTEIGER

@<TRIPOS>ATOM
      1 C           2.6095   -3.2863   -0.4645 C.3     1  UNL1        0.0306
      2 N           3.6068   -2.2574   -0.2149 N.ar    1  UNL1       -0.2682
      3 N           4.9114   -2.3021   -0.4919 N.ar    1  UNL1       -0.1525
      4 C           5.5006   -1.1520   -0.1091 C.ar    1  UNL1        0.1714
      5 C           4.5113   -0.3398    0.4386 C.ar    1  UNL1        0.1050
      6 C           3.3358   -1.0705    0.3535 C.ar    1  UNL1        0.0622
      7 C           2.0315   -0.5485    0.8370 C.3     1  UNL1        0.0688
      8 C           1.5013    0.4464   -0.1296 C.2     1  UNL1        0.2442
      9 O           2.1183    0.7632   -1.1937 O.2     1  UNL1       -0.2732
     10 N           0.2329    1.0455    0.2017 N.am    1  UNL1       -0.1560
     11 C          -0.7955    0.5797   -0.4277 C.ar    1  UNL1        0.1677
     12 S          -0.7694   -0.7090   -1.6387 S.2     1  UNL1       -0.0599
     13 C          -2.4984   -0.7042   -1.9613 C.ar    1  UNL1        0.0032
     14 C          -2.9670    0.3089   -1.0962 C.ar    1  UNL1        0.0624
     15 C          -4.4372    0.6225   -1.1557 C.ar    1  UNL1        0.0350
     16 C          -4.8577    1.9062   -1.3402 C.ar    1  UNL1       -0.0471
     17 C          -6.2263    2.2290   -1.3815 C.ar    1  UNL1       -0.0251
     18 C          -7.1584    1.2219   -1.2337 C.ar    1  UNL1        0.1379
     19 F          -8.4701    1.5543   -1.2761 F       1  UNL1       -0.2048
     20 C          -6.7448   -0.0749   -1.0495 C.ar    1  UNL1        0.1255
     21 C          -7.7692   -1.1308   -0.8953 C.3     1  UNL1        0.4227
     22 F          -7.2240   -2.3775   -0.7193 F       1  UNL1       -0.1657
     23 F          -8.4516   -0.8277    0.2922 F       1  UNL1       -0.1657
     24 F          -8.7284   -1.0937   -1.8885 F       1  UNL1       -0.1657
     25 C          -5.3935   -0.3540   -1.0139 C.ar    1  UNL1        0.1469
     26 F          -4.9962   -1.6329   -0.8548 F       1  UNL1       -0.2041
     27 N          -2.0988    0.9182   -0.3529 N.ar    1  UNL1       -0.2968
     28 C          -2.4079    1.9246    0.7125 C.3     1  UNL1        0.1372
     29 O          -2.3427    1.4069    1.9763 O.3     1  UNL1       -0.2650
     30 P          -3.3630    0.1617    2.3010 P.3     1  UNL1        0.4740
     31 O          -3.2559   -0.3111    3.7537 O.2     1  UNL1       -0.2275
     32 O          -4.9563    0.6405    2.0043 O.3     1  UNL1       -0.3026
     33 O          -2.9910   -1.1220    1.2593 O.3     1  UNL1       -0.3026
     34 C           4.8184    0.9130    0.9213 C.ar    1  UNL1        0.2674
     35 O           3.9001    1.6162    1.4077 O.2     1  UNL1       -0.2667
     36 N           6.0840    1.3403    0.8566 N.ar    1  UNL1       -0.2634
     37 C           6.4781    2.6468    1.3452 C.3     1  UNL1        0.0196
     38 C           7.0174    0.5442    0.3269 C.ar    1  UNL1        0.3330
     39 O           8.2241    0.9509    0.2648 O.2     1  UNL1       -0.2462
     40 N           6.7610   -0.6833   -0.1549 N.ar    1  UNL1       -0.2794
     41 C           7.8000   -1.5213   -0.7243 C.3     1  UNL1        0.0181
     42 H           1.9898   -3.0009   -1.3491 H       1  UNL1        0.0473
     43 H           1.9147   -3.3450    0.4155 H       1  UNL1        0.0473
     44 H           3.0772   -4.2711   -0.6604 H       1  UNL1        0.0473
     45 H           1.3191   -1.4058    0.8698 H       1  UNL1        0.0423
     46 H           2.1044   -0.0738    1.8330 H       1  UNL1        0.0423
     47 H          -3.0837   -1.3258   -2.6569 H       1  UNL1        0.0715
     48 H          -4.1552    2.7104   -1.4977 H       1  UNL1        0.0626
     49 H          -6.5621    3.2472   -1.5266 H       1  UNL1        0.0646
     50 H          -3.3586    2.4400    0.5206 H       1  UNL1        0.0806
     51 H          -1.6292    2.7340    0.6281 H       1  UNL1        0.0806
     52 H          -5.5797    0.0085    2.4535 H       1  UNL1        0.2220
     53 H          -2.5238   -1.8065    1.7999 H       1  UNL1        0.2220
     54 H           7.4006    2.5799    1.9737 H       1  UNL1        0.0458
     55 H           5.6791    3.1318    1.9336 H       1  UNL1        0.0458
     56 H           6.7341    3.3184    0.5052 H       1  UNL1        0.0458
     57 H           8.6849   -0.8883   -0.9904 H       1  UNL1        0.0458
     58 H           8.0739   -2.3587   -0.0575 H       1  UNL1        0.0458
     59 H           7.3751   -1.9364   -1.6772 H       1  UNL1        0.0458
@<TRIPOS>BOND
     1     1     2    1
     2     2     3   ar
     3     3     4   ar
     4     4     5   ar
     5     5     6   ar
     6     6     7    1
     7     7     8    1
     8     8     9    2
     9     8    10    1
    10    10    11    2
    11    11    12   ar
    12    12    13   ar
    13    13    14   ar
    14    14    15    1
    15    15    16   ar
    16    16    17   ar
    17    17    18   ar
    18    18    19    1
    19    18    20   ar
    20    20    21    1
    21    21    22    1
    22    21    23    1
    23    21    24    1
    24    20    25   ar
    25    25    26    1
    26    14    27   ar
    27    27    28    1
    28    28    29    1
    29    29    30    1
    30    30    31    2
    31    30    32    1
    32    30    33    1
    33     5    34   ar
    34    34    35    2
    35    34    36   ar
    36    36    37    1
    37    36    38   ar
    38    38    39    2
    39    38    40   ar
    40    40    41    1
    41     6     2   ar
    42    27    11   ar
    43    40     4   ar
    44    25    15   ar
    45     1    42    1
    46     1    43    1
    47     1    44    1
    48     7    45    1
    49     7    46    1
    50    13    47    1
    51    16    48    1
    52    17    49    1
    53    28    50    1
    54    28    51    1
    55    32    52    1
    56    33    53    1
    57    37    54    1
    58    37    55    1
    59    37    56    1
    60    41    57    1
    61    41    58    1
    62    41    59    1
@<TRIPOS>MOLECULE
343260
 50 53 0 0 0
SMALL
GASTEIGER

@<TRIPOS>ATOM
      1 C          -3.5148   -2.4025    2.9481 C.3     1  UNL1        0.0306
      2 N          -3.9021   -1.4588    1.9205 N.ar    1  UNL1       -0.2682
      3 N          -5.0418   -1.5628    1.2434 N.ar    1  UNL1       -0.1525
      4 C          -5.1577   -0.5653    0.3532 C.ar    1  UNL1        0.1714
      5 C          -3.9987    0.1893    0.5133 C.ar    1  UNL1        0.1050
      6 C          -3.2161   -0.3804    1.5006 C.ar    1  UNL1        0.0621
      7 C          -1.9070    0.0911    1.9900 C.3     1  UNL1        0.0671
      8 C          -0.8280   -0.2416    1.0287 C.2     1  UNL1        0.2245
      9 O          -1.1183   -0.8572   -0.0461 O.2     1  UNL1       -0.2750
     10 N           0.5195    0.0849    1.2320 N.am    1  UNL1       -0.2644
     11 C           1.5288   -0.2613    0.2685 C.ar    1  UNL1        0.1649
     12 N           2.8347   -0.0224    0.3186 N.ar    1  UNL1       -0.2246
     13 C           3.6229   -0.3941   -0.6236 C.ar    1  UNL1        0.0803
     14 C           5.0988   -0.1178   -0.5553 C.ar    1  UNL1        0.0037
     15 C           5.6757    0.5378    0.5024 C.ar    1  UNL1       -0.0518
     16 C           7.0339    0.7899    0.5628 C.ar    1  UNL1       -0.0467
     17 C           7.8321    0.3719   -0.4670 C.ar    1  UNL1        0.0899
     18 C           9.3010    0.6482   -0.3944 C.3     1  UNL1        0.4201
     19 F           9.6559    1.4295   -1.4867 F       1  UNL1       -0.1658
     20 F           9.9923   -0.5381   -0.4477 F       1  UNL1       -0.1658
     21 F           9.5956    1.3275    0.7697 F       1  UNL1       -0.1658
     22 C           7.2799   -0.2912   -1.5463 C.ar    1  UNL1        0.1356
     23 F           8.0915   -0.6879   -2.5400 F       1  UNL1       -0.2049
     24 C           5.9136   -0.5256   -1.5709 C.ar    1  UNL1       -0.0167
     25 C           3.0893   -1.0417   -1.6810 C.ar    1  UNL1        0.0049
     26 S           1.3430   -1.0841   -1.2260 S.2     1  UNL1       -0.0599
     27 C          -3.8261    1.2915   -0.2684 C.ar    1  UNL1        0.2674
     28 O          -2.8020    1.9798   -0.1444 O.2     1  UNL1       -0.2667
     29 N          -4.7841    1.6169   -1.1733 N.ar    1  UNL1       -0.2634
     30 C          -4.5341    2.8044   -1.9722 C.3     1  UNL1        0.0196
     31 C          -5.8780    0.8614   -1.2892 C.ar    1  UNL1        0.3330
     32 O          -6.7378    1.2184   -2.1542 O.2     1  UNL1       -0.2462
     33 N          -6.1039   -0.2370   -0.5462 N.ar    1  UNL1       -0.2794
     34 C          -7.3063   -1.0187   -0.7133 C.3     1  UNL1        0.0181
     35 H          -4.3713   -2.6602    3.6198 H       1  UNL1        0.0473
     36 H          -2.7079   -2.0272    3.5910 H       1  UNL1        0.0473
     37 H          -3.1754   -3.3542    2.5077 H       1  UNL1        0.0473
     38 H          -1.6488   -0.4098    2.9439 H       1  UNL1        0.0423
     39 H          -1.8991    1.1812    2.2076 H       1  UNL1        0.0423
     40 H           0.8200    0.5777    2.0708 H       1  UNL1        0.1567
     41 H           5.0332    0.8618    1.3078 H       1  UNL1        0.0624
     42 H           7.3947    1.3128    1.4366 H       1  UNL1        0.0624
     43 H           5.5245   -1.0465   -2.4320 H       1  UNL1        0.0653
     44 H           3.5170   -1.4780   -2.6347 H       1  UNL1        0.0716
     45 H          -4.8863    2.5621   -3.0155 H       1  UNL1        0.0458
     46 H          -5.0271    3.6999   -1.5795 H       1  UNL1        0.0458
     47 H          -3.4283    2.9606   -2.0899 H       1  UNL1        0.0458
     48 H          -7.6420   -1.4969    0.2310 H       1  UNL1        0.0458
     49 H          -8.1382   -0.3753   -1.0479 H       1  UNL1        0.0458
     50 H          -7.1164   -1.8616   -1.4235 H       1  UNL1        0.0458
@<TRIPOS>BOND
     1     1     2    1
     2     2     3   ar
     3     3     4   ar
     4     4     5   ar
     5     5     6   ar
     6     6     7    1
     7     7     8    1
     8     8     9    2
     9     8    10   am
    10    10    11    1
    11    11    12   ar
    12    12    13   ar
    13    13    14    1
    14    14    15   ar
    15    15    16   ar
    16    16    17   ar
    17    17    18    1
    18    18    19    1
    19    18    20    1
    20    18    21    1
    21    17    22   ar
    22    22    23    1
    23    22    24   ar
    24    13    25   ar
    25    25    26   ar
    26     5    27   ar
    27    27    28    2
    28    27    29   ar
    29    29    30    1
    30    29    31   ar
    31    31    32    2
    32    31    33   ar
    33    33    34    1
    34     6     2   ar
    35    26    11   ar
    36    33     4   ar
    37    24    14   ar
    38     1    35    1
    39     1    36    1
    40     1    37    1
    41     7    38    1
    42     7    39    1
    43    10    40    1
    44    15    41    1
    45    16    42    1
    46    24    43    1
    47    25    44    1
    48    30    45    1
    49    30    46    1
    50    30    47    1
    51    34    48    1
    52    34    49    1
    53    34    50    1
@<TRIPOS>MOLECULE
343261
 50 53 0 0 0
SMALL
GASTEIGER

@<TRIPOS>ATOM
      1 C          -3.3145   -2.2694    3.0468 C.3     1  UNL1        0.0306
      2 N          -3.4872   -1.2951    1.9638 N.ar    1  UNL1       -0.2682
      3 N          -4.1625   -0.1615    2.0746 N.ar    1  UNL1       -0.1525
      4 C          -4.1459    0.5217    0.9173 C.ar    1  UNL1        0.1714
      5 C          -3.4013   -0.2557    0.0279 C.ar    1  UNL1        0.1050
      6 C          -3.0070   -1.3775    0.7097 C.ar    1  UNL1        0.0621
      7 C          -2.1942   -2.4607    0.1220 C.3     1  UNL1        0.0671
      8 C          -0.7791   -2.0942   -0.0136 C.2     1  UNL1        0.2245
      9 O          -0.3270   -0.9598    0.3419 O.2     1  UNL1       -0.2750
     10 N           0.1675   -2.9935   -0.5531 N.am    1  UNL1       -0.2644
     11 C           1.5579   -2.5891   -0.6703 C.ar    1  UNL1        0.1649
     12 N           2.2957   -1.7258   -0.4783 N.ar    1  UNL1       -0.2246
     13 C           3.5851   -1.6338   -0.6992 C.ar    1  UNL1        0.0802
     14 C           4.4247   -0.4672   -0.4076 C.ar    1  UNL1        0.0010
     15 C           3.9089    0.6827    0.1486 C.ar    1  UNL1       -0.0520
     16 C           4.6879    1.7967    0.4301 C.ar    1  UNL1       -0.0495
     17 C           6.0329    1.7605    0.1451 C.ar    1  UNL1        0.0548
     18 C           6.8341    2.9785    0.4616 C.3     1  UNL1        0.4174
     19 F           8.1803    2.7443    0.4061 F       1  UNL1       -0.1659
     20 F           6.4466    3.4147    1.7020 F       1  UNL1       -0.1659
     21 F           6.4415    3.9547   -0.4565 F       1  UNL1       -0.1659
     22 C           6.5774    0.6341   -0.4078 C.ar    1  UNL1       -0.0495
     23 C           5.7715   -0.4547   -0.6737 C.ar    1  UNL1       -0.0520
     24 C           4.1085   -2.8137   -1.2671 C.ar    1  UNL1        0.0049
     25 S           2.7426   -3.8761   -1.4121 S.2     1  UNL1       -0.0599
     26 C          -3.2451    0.2512   -1.2429 C.ar    1  UNL1        0.2674
     27 O          -2.5801   -0.4237   -2.0686 O.2     1  UNL1       -0.2667
     28 N          -3.7749    1.4303   -1.6229 N.ar    1  UNL1       -0.2634
     29 C          -3.5764    1.9054   -2.9619 C.3     1  UNL1        0.0196
     30 C          -4.4773    2.1137   -0.7030 C.ar    1  UNL1        0.3330
     31 O          -4.9814    3.2268   -1.0507 O.2     1  UNL1       -0.2462
     32 N          -4.6738    1.6906    0.5481 N.ar    1  UNL1       -0.2794
     33 C          -5.4431    2.4779    1.4918 C.3     1  UNL1        0.0181
     34 H          -4.2846   -2.8227    3.2120 H       1  UNL1        0.0473
     35 H          -3.0876   -1.7780    3.9968 H       1  UNL1        0.0473
     36 H          -2.5870   -3.0107    2.7162 H       1  UNL1        0.0473
     37 H          -2.3238   -3.3952    0.7238 H       1  UNL1        0.0423
     38 H          -2.5884   -2.7280   -0.8973 H       1  UNL1        0.0423
     39 H          -0.1706   -3.9323   -0.8531 H       1  UNL1        0.1567
     40 H           2.8417    0.6845    0.3641 H       1  UNL1        0.0624
     41 H           4.2182    2.6549    0.8623 H       1  UNL1        0.0623
     42 H           7.6289    0.6400   -0.6161 H       1  UNL1        0.0623
     43 H           6.2654   -1.3120   -1.1107 H       1  UNL1        0.0624
     44 H           5.2073   -2.9886   -1.5548 H       1  UNL1        0.0716
     45 H          -3.1606    2.9498   -2.8823 H       1  UNL1        0.0458
     46 H          -2.7935    1.3123   -3.4610 H       1  UNL1        0.0458
     47 H          -4.5007    1.8606   -3.5485 H       1  UNL1        0.0458
     48 H          -5.5541    1.9370    2.4494 H       1  UNL1        0.0458
     49 H          -4.8888    3.4306    1.6957 H       1  UNL1        0.0458
     50 H          -6.4141    2.7657    1.0545 H       1  UNL1        0.0458
@<TRIPOS>BOND
     1     1     2    1
     2     2     3   ar
     3     3     4   ar
     4     4     5   ar
     5     5     6   ar
     6     6     7    1
     7     7     8    1
     8     8     9    2
     9     8    10   am
    10    10    11    1
    11    11    12   ar
    12    12    13   ar
    13    13    14    1
    14    14    15   ar
    15    15    16   ar
    16    16    17   ar
    17    17    18    1
    18    18    19    1
    19    18    20    1
    20    18    21    1
    21    17    22   ar
    22    22    23   ar
    23    13    24   ar
    24    24    25   ar
    25     5    26   ar
    26    26    27    2
    27    26    28   ar
    28    28    29    1
    29    28    30   ar
    30    30    31    2
    31    30    32   ar
    32    32    33    1
    33     6     2   ar
    34    25    11   ar
    35    32     4   ar
    36    23    14   ar
    37     1    34    1
    38     1    35    1
    39     1    36    1
    40     7    37    1
    41     7    38    1
    42    10    39    1
    43    15    40    1
    44    16    41    1
    45    22    42    1
    46    23    43    1
    47    24    44    1
    48    29    45    1
    49    29    46    1
    50    29    47    1
    51    33    48    1
    52    33    49    1
    53    33    50    1
@<TRIPOS>MOLECULE
343263
 51 54 0 0 0
SMALL
GASTEIGER

@<TRIPOS>ATOM
      1 C          -3.8754   -3.3929    1.3559 C.3     1  UNL1        0.0306
      2 N          -4.2559   -2.0864    0.8673 N.ar    1  UNL1       -0.2682
      3 N          -5.3102   -1.3744    1.1883 N.ar    1  UNL1       -0.1525
      4 C          -5.3080   -0.2094    0.5161 C.ar    1  UNL1        0.1714
      5 C          -4.1701   -0.1852   -0.2867 C.ar    1  UNL1        0.1050
      6 C          -3.5309   -1.3822   -0.0408 C.ar    1  UNL1        0.0621
      7 C          -2.2775   -1.8198   -0.6577 C.3     1  UNL1        0.0671
      8 C          -1.1047   -1.1219   -0.0569 C.2     1  UNL1        0.2245
      9 O          -1.2937   -0.2809    0.8590 O.2     1  UNL1       -0.2750
     10 N           0.2157   -1.3713   -0.4799 N.am    1  UNL1       -0.2644
     11 C           1.3722   -0.6993    0.0960 C.ar    1  UNL1        0.1649
     12 N           2.5512   -0.6610   -0.0043 N.ar    1  UNL1       -0.2246
     13 C           3.4107    0.0510    0.6504 C.ar    1  UNL1        0.0803
     14 C           4.8757    0.0007    0.4222 C.ar    1  UNL1        0.0039
     15 C           5.7157    0.7956    1.1674 C.ar    1  UNL1       -0.0489
     16 C           7.1004    0.7533    0.9579 C.ar    1  UNL1       -0.0161
     17 C           7.6641   -0.0749    0.0102 C.ar    1  UNL1        0.1650
     18 O           9.0390   -0.1265   -0.2079 O.3     1  UNL1       -0.4028
     19 C           9.5564    0.7750   -1.1762 C.3     1  UNL1        0.5753
     20 F           8.9085    0.4480   -2.3755 F       1  UNL1       -0.1328
     21 F          10.9152    0.6806   -1.3063 F       1  UNL1       -0.1328
     22 F           9.1236    2.0338   -0.8394 F       1  UNL1       -0.1328
     23 C           6.8065   -0.8639   -0.7265 C.ar    1  UNL1        0.1657
     24 F           7.3413   -1.6836   -1.6616 F       1  UNL1       -0.2016
     25 C           5.4445   -0.8235   -0.5217 C.ar    1  UNL1       -0.0136
     26 C           2.8148    0.9023    1.6274 C.ar    1  UNL1        0.0049
     27 S           1.0901    0.5261    1.4335 S.2     1  UNL1       -0.0599
     28 C          -3.9282    0.9114   -1.0858 C.ar    1  UNL1        0.2674
     29 O          -2.9097    0.9328   -1.8044 O.2     1  UNL1       -0.2667
     30 N          -4.7763    1.9542   -1.0982 N.ar    1  UNL1       -0.2634
     31 C          -4.5704    3.1322   -1.9192 C.3     1  UNL1        0.0196
     32 C          -5.8663    1.8935   -0.3076 C.ar    1  UNL1        0.3330
     33 O          -6.6757    2.8600   -0.3029 O.2     1  UNL1       -0.2462
     34 N          -6.1366    0.8356    0.4890 N.ar    1  UNL1       -0.2794
     35 C          -7.3315    0.8269    1.3217 C.3     1  UNL1        0.0181
     36 H          -4.7045   -3.8490    1.9226 H       1  UNL1        0.0473
     37 H          -3.6766   -4.0906    0.4978 H       1  UNL1        0.0473
     38 H          -2.9642   -3.3330    1.9954 H       1  UNL1        0.0473
     39 H          -2.1471   -2.9153   -0.4925 H       1  UNL1        0.0423
     40 H          -2.2545   -1.6810   -1.7580 H       1  UNL1        0.0423
     41 H           0.4128   -2.0423   -1.2162 H       1  UNL1        0.1567
     42 H           5.2930    1.4512    1.9148 H       1  UNL1        0.0625
     43 H           7.7423    1.3810    1.5488 H       1  UNL1        0.0655
     44 H           4.7699   -1.4467   -1.1044 H       1  UNL1        0.0654
     45 H           3.3218    1.6295    2.3403 H       1  UNL1        0.0716
     46 H          -4.0792    3.9004   -1.2860 H       1  UNL1        0.0458
     47 H          -3.9597    2.8931   -2.8150 H       1  UNL1        0.0458
     48 H          -5.5580    3.5589   -2.2461 H       1  UNL1        0.0458
     49 H          -8.0980    0.1849    0.8316 H       1  UNL1        0.0458
     50 H          -7.0443    0.3485    2.2780 H       1  UNL1        0.0458
     51 H          -7.6782    1.8544    1.4880 H       1  UNL1        0.0458
@<TRIPOS>BOND
     1     1     2    1
     2     2     3   ar
     3     3     4   ar
     4     4     5   ar
     5     5     6   ar
     6     6     7    1
     7     7     8    1
     8     8     9    2
     9     8    10   am
    10    10    11    1
    11    11    12   ar
    12    12    13   ar
    13    13    14    1
    14    14    15   ar
    15    15    16   ar
    16    16    17   ar
    17    17    18    1
    18    18    19    1
    19    19    20    1
    20    19    21    1
    21    19    22    1
    22    17    23   ar
    23    23    24    1
    24    23    25   ar
    25    13    26   ar
    26    26    27   ar
    27     5    28   ar
    28    28    29    2
    29    28    30   ar
    30    30    31    1
    31    30    32   ar
    32    32    33    2
    33    32    34   ar
    34    34    35    1
    35     6     2   ar
    36    27    11   ar
    37    34     4   ar
    38    25    14   ar
    39     1    36    1
    40     1    37    1
    41     1    38    1
    42     7    39    1
    43     7    40    1
    44    10    41    1
    45    15    42    1
    46    16    43    1
    47    25    44    1
    48    26    45    1
    49    31    46    1
    50    31    47    1
    51    31    48    1
    52    35    49    1
    53    35    50    1
    54    35    51    1
@<TRIPOS>MOLECULE
CHEMBL3972562
 53 55 0 0 0
SMALL
GASTEIGER

@<TRIPOS>ATOM
      1 C          -0.1496    0.6136    3.3360 C.3     1  UNL1        0.0001
      2 N          -0.1889    0.0834    1.9726 N.am    1  UNL1       -0.3166
      3 C          -0.9560    0.7261    0.9719 C.2     1  UNL1        0.2379
      4 O          -1.5874    1.7604    1.3597 O.2     1  UNL1       -0.2734
      5 C          -1.0968    0.3295   -0.4245 C.3     1  UNL1        0.1280
      6 C          -1.2903    1.4792   -1.3145 C.ar    1  UNL1       -0.0182
      7 C          -1.0123    2.7921   -1.0395 C.ar    1  UNL1       -0.0563
      8 C          -1.2679    3.8092   -1.9561 C.ar    1  UNL1       -0.0614
      9 C          -1.8105    3.5372   -3.1794 C.ar    1  UNL1       -0.0617
     10 C          -2.1031    2.2149   -3.4895 C.ar    1  UNL1       -0.0614
     11 C          -1.8464    1.2435   -2.5823 C.ar    1  UNL1       -0.0563
     12 N          -0.1933   -0.6465   -0.9355 N.am    1  UNL1       -0.2776
     13 C           1.1362   -0.2338   -1.3357 C.3     1  UNL1        0.0412
     14 C           2.1895   -0.2985   -0.3256 C.ar    1  UNL1       -0.0266
     15 C           2.9366   -1.4094   -0.0269 C.ar    1  UNL1       -0.0568
     16 C           3.9440   -1.4138    0.9239 C.ar    1  UNL1       -0.0580
     17 C           4.2483   -0.2735    1.6291 C.ar    1  UNL1       -0.0199
     18 C           3.5178    0.8610    1.3551 C.ar    1  UNL1        0.1204
     19 O           3.8172    2.0214    2.0639 O.3     1  UNL1       -0.4951
     20 C           4.8450    2.0057    3.0281 C.3     1  UNL1        0.0788
     21 C           2.5217    0.8490    0.4100 C.ar    1  UNL1       -0.0153
     22 C          -0.5566   -1.9736   -1.1493 C.2     1  UNL1        0.2478
     23 O           0.2805   -2.7962   -1.6020 O.2     1  UNL1       -0.2699
     24 C          -1.8748   -2.4772   -0.8763 C.ar    1  UNL1        0.0369
     25 C          -2.6918   -3.0109   -1.8807 C.ar    1  UNL1       -0.0496
     26 C          -3.9500   -3.5044   -1.6238 C.ar    1  UNL1       -0.0610
     27 C          -4.4382   -3.4805   -0.3418 C.ar    1  UNL1       -0.0617
     28 C          -3.6492   -2.9583    0.6640 C.ar    1  UNL1       -0.0610
     29 C          -2.3979   -2.4690    0.4000 C.ar    1  UNL1       -0.0496
     30 H          -0.7804    0.0059    4.0126 H       1  UNL1        0.0426
     31 H           0.9039    0.5939    3.7270 H       1  UNL1        0.0426
     32 H          -0.5542    1.6515    3.3456 H       1  UNL1        0.0426
     33 H           0.3384   -0.7767    1.7323 H       1  UNL1        0.1484
     34 H          -2.1179   -0.2481   -0.3900 H       1  UNL1        0.0648
     35 H          -0.5724    3.0626   -0.1053 H       1  UNL1        0.0621
     36 H          -1.0314    4.8174   -1.6846 H       1  UNL1        0.0618
     37 H          -2.0099    4.3385   -3.8924 H       1  UNL1        0.0618
     38 H          -2.5311    2.0081   -4.4594 H       1  UNL1        0.0618
     39 H          -2.0820    0.2011   -2.8294 H       1  UNL1        0.0621
     40 H           1.4338   -0.8508   -2.2456 H       1  UNL1        0.0514
     41 H           1.0941    0.8104   -1.7944 H       1  UNL1        0.0514
     42 H           2.7352   -2.3402   -0.5627 H       1  UNL1        0.0621
     43 H           4.5028   -2.3347    1.1161 H       1  UNL1        0.0619
     44 H           5.0482   -0.2672    2.3858 H       1  UNL1        0.0654
     45 H           5.8204    1.7686    2.5413 H       1  UNL1        0.0660
     46 H           4.7002    1.2177    3.8042 H       1  UNL1        0.0660
     47 H           4.8836    2.9971    3.5142 H       1  UNL1        0.0660
     48 H           1.9601    1.7502    0.2093 H       1  UNL1        0.0657
     49 H          -2.2913   -3.0226   -2.8995 H       1  UNL1        0.0625
     50 H          -4.5817   -3.9160   -2.4012 H       1  UNL1        0.0618
     51 H          -5.4245   -3.8552   -0.0716 H       1  UNL1        0.0618
     52 H          -4.0061   -2.9236    1.7038 H       1  UNL1        0.0618
     53 H          -1.8137   -2.0681    1.2130 H       1  UNL1        0.0625
@<TRIPOS>BOND
     1     1     2    1
     2     2     3   am
     3     3     4    2
     4     3     5    1
     5     5     6    1
     6     6     7   ar
     7     7     8   ar
     8     8     9   ar
     9     9    10   ar
    10    10    11   ar
    11     5    12    1
    12    12    13    1
    13    13    14    1
    14    14    15   ar
    15    15    16   ar
    16    16    17   ar
    17    17    18   ar
    18    18    19    1
    19    19    20    1
    20    18    21   ar
    21    12    22   am
    22    22    23    2
    23    22    24    1
    24    24    25   ar
    25    25    26   ar
    26    26    27   ar
    27    27    28   ar
    28    28    29   ar
    29    11     6   ar
    30    21    14   ar
    31    29    24   ar
    32     1    30    1
    33     1    31    1
    34     1    32    1
    35     2    33    1
    36     5    34    1
    37     7    35    1
    38     8    36    1
    39     9    37    1
    40    10    38    1
    41    11    39    1
    42    13    40    1
    43    13    41    1
    44    15    42    1
    45    16    43    1
    46    17    44    1
    47    20    45    1
    48    20    46    1
    49    20    47    1
    50    21    48    1
    51    25    49    1
    52    26    50    1
    53    27    51    1
    54    28    52    1
    55    29    53    1
@<TRIPOS>MOLECULE
CHEMBL122413
 34 35 0 0 0
SMALL
GASTEIGER

@<TRIPOS>ATOM
      1 C           6.4861    1.5453    0.0490 C.3     1  UNL1        0.0788
      2 O           5.0876    1.6951    0.0626 O.3     1  UNL1       -0.4951
      3 C           4.2407    0.5871    0.2053 C.ar    1  UNL1        0.1219
      4 C           4.8087   -0.6588    0.3329 C.ar    1  UNL1       -0.0198
      5 C           3.9634   -1.7524    0.4740 C.ar    1  UNL1       -0.0566
      6 C           2.5874   -1.5996    0.4867 C.ar    1  UNL1       -0.0402
      7 C           2.0362   -0.3488    0.3583 C.ar    1  UNL1        0.0371
      8 N           0.6096   -0.2464    0.3777 N.am    1  UNL1       -0.2819
      9 C          -0.0863   -0.3353   -0.8344 C.2     1  UNL1        0.2411
     10 O           0.5819   -0.5027   -1.8942 O.2     1  UNL1       -0.2705
     11 C          -1.5439   -0.2460   -0.9487 C.2     1  UNL1        0.0010
     12 C          -2.3632   -0.0750    0.0500 C.2     1  UNL1       -0.0497
     13 C          -3.8126    0.0143   -0.0599 C.ar    1  UNL1       -0.0248
     14 C          -4.5601    0.1986    1.1006 C.ar    1  UNL1       -0.0532
     15 C          -5.9369    0.2932    1.0830 C.ar    1  UNL1       -0.0428
     16 C          -6.6166    0.2053   -0.1099 C.ar    1  UNL1        0.0410
     17 CL         -8.3579    0.3145   -0.2247 Cl      1  UNL1       -0.0835
     18 C          -5.9133    0.0231   -1.2791 C.ar    1  UNL1       -0.0428
     19 C          -4.5238   -0.0685   -1.2272 C.ar    1  UNL1       -0.0532
     20 C           2.8693    0.7298    0.2191 C.ar    1  UNL1        0.0013
     21 H           6.9234    2.5292   -0.2001 H       1  UNL1        0.0660
     22 H           6.9069    1.2370    1.0226 H       1  UNL1        0.0660
     23 H           6.7509    0.7524   -0.6785 H       1  UNL1        0.0660
     24 H           5.8601   -0.8071    0.3267 H       1  UNL1        0.0654
     25 H           4.3955   -2.7342    0.5748 H       1  UNL1        0.0619
     26 H           1.9340   -2.4690    0.5985 H       1  UNL1        0.0636
     27 H           0.1130   -0.1099    1.2713 H       1  UNL1        0.1551
     28 H          -1.9974   -0.3263   -1.9355 H       1  UNL1        0.0670
     29 H          -1.8865    0.0040    1.0394 H       1  UNL1        0.0625
     30 H          -4.0521    0.2708    2.0505 H       1  UNL1        0.0624
     31 H          -6.5022    0.4340    1.9736 H       1  UNL1        0.0632
     32 H          -6.4394   -0.0485   -2.2341 H       1  UNL1        0.0632
     33 H          -3.9925   -0.2104   -2.1479 H       1  UNL1        0.0624
     34 H           2.4298    1.7050    0.1192 H       1  UNL1        0.0673
@<TRIPOS>BOND
     1     1     2    1
     2     2     3    1
     3     3     4   ar
     4     4     5   ar
     5     5     6   ar
     6     6     7   ar
     7     7     8    1
     8     8     9   am
     9     9    10    2
    10     9    11    1
    11    11    12    2
    12    12    13    1
    13    13    14   ar
    14    14    15   ar
    15    15    16   ar
    16    16    17    1
    17    16    18   ar
    18    18    19   ar
    19     7    20   ar
    20    20     3   ar
    21    19    13   ar
    22     1    21    1
    23     1    22    1
    24     1    23    1
    25     4    24    1
    26     5    25    1
    27     6    26    1
    28     8    27    1
    29    11    28    1
    30    12    29    1
    31    14    30    1
    32    15    31    1
    33    18    32    1
    34    19    33    1
    35    20    34    1
@<TRIPOS>MOLECULE
343312
 47 50 0 0 0
SMALL
GASTEIGER

@<TRIPOS>ATOM
      1 C           6.3356    2.4513    0.5144 C.3     1  UNL1        0.0364
      2 O           5.7472    1.2432    0.9277 O.3     1  UNL1       -0.3829
      3 C           6.0317    0.2677   -0.0259 C.3     1  UNL1        0.0504
      4 C           5.4194   -1.0510    0.3742 C.3     1  UNL1        0.0049
      5 C           3.9158   -0.9103    0.4930 C.3     1  UNL1        0.0917
      6 O           3.3854   -0.5076   -0.7558 O.3     1  UNL1       -0.4919
      7 C           2.0472   -0.2919   -0.9801 C.ar    1  UNL1        0.1208
      8 C           1.6622    0.0986   -2.2454 C.ar    1  UNL1       -0.0199
      9 C           0.3202    0.3189   -2.4862 C.ar    1  UNL1       -0.0580
     10 C          -0.6347    0.1508   -1.4702 C.ar    1  UNL1       -0.0563
     11 C          -0.2294   -0.2345   -0.2298 C.ar    1  UNL1       -0.0192
     12 C          -1.2057   -0.4065    0.8889 C.3     1  UNL1        0.0782
     13 N          -1.0413   -1.7566    1.3464 N.am    1  UNL1       -0.3153
     14 C          -2.1124   -2.6669    1.4167 C.2     1  UNL1        0.1353
     15 S          -1.8422   -4.2069    1.9079 S.2     1  UNL1       -0.0185
     16 N          -3.4112   -2.2436    1.0628 N.am    1  UNL1       -0.2960
     17 C          -3.5830   -0.8855    0.6359 C.2     1  UNL1        0.0495
     18 C          -2.5697   -0.0589    0.5645 C.2     1  UNL1        0.0461
     19 C          -3.0814    1.2675    0.1132 C.2     1  UNL1        0.1937
     20 O          -2.4271    2.3285   -0.0766 O.2     1  UNL1       -0.2868
     21 C          -4.5157    1.1397   -0.0799 C.ar    1  UNL1        0.0310
     22 C          -5.4662    2.0518   -0.4869 C.ar    1  UNL1       -0.0503
     23 C          -6.7650    1.6064   -0.5696 C.ar    1  UNL1       -0.0610
     24 C          -7.0819    0.2943   -0.2531 C.ar    1  UNL1       -0.0611
     25 C          -6.1071   -0.5948    0.1513 C.ar    1  UNL1       -0.0521
     26 C          -4.8038   -0.1610    0.2381 C.ar    1  UNL1        0.0074
     27 C           1.0927   -0.4587    0.0325 C.ar    1  UNL1       -0.0147
     28 H           5.9235    2.7535   -0.4658 H       1  UNL1        0.0523
     29 H           6.2230    3.2378    1.2774 H       1  UNL1        0.0523
     30 H           7.4478    2.2698    0.4394 H       1  UNL1        0.0523
     31 H           5.6441    0.6108   -0.9935 H       1  UNL1        0.0561
     32 H           7.1301    0.1565   -0.1015 H       1  UNL1        0.0561
     33 H           5.6846   -1.8354   -0.3430 H       1  UNL1        0.0320
     34 H           5.8358   -1.2901    1.3909 H       1  UNL1        0.0320
     35 H           3.5271   -1.9280    0.7481 H       1  UNL1        0.0697
     36 H           3.7242   -0.1729    1.2972 H       1  UNL1        0.0697
     37 H           2.3512    0.2429   -3.0626 H       1  UNL1        0.0654
     38 H          -0.0388    0.6258   -3.4571 H       1  UNL1        0.0619
     39 H          -1.6811    0.3084   -1.6599 H       1  UNL1        0.0621
     40 H          -0.7911    0.2692    1.7011 H       1  UNL1        0.0600
     41 H          -0.0497   -2.0889    1.6507 H       1  UNL1        0.1486
     42 H          -4.2247   -2.8801    1.1044 H       1  UNL1        0.1539
     43 H          -5.2359    3.0790   -0.7376 H       1  UNL1        0.0625
     44 H          -7.5507    2.2892   -0.8862 H       1  UNL1        0.0618
     45 H          -8.0917   -0.0470   -0.3188 H       1  UNL1        0.0618
     46 H          -6.3487   -1.6186    0.3992 H       1  UNL1        0.0624
     47 H           1.4412   -0.7659    1.0087 H       1  UNL1        0.0657
@<TRIPOS>BOND
     1     1     2    1
     2     2     3    1
     3     3     4    1
     4     4     5    1
     5     5     6    1
     6     6     7    1
     7     7     8   ar
     8     8     9   ar
     9     9    10   ar
    10    10    11   ar
    11    11    12    1
    12    12    13    1
    13    13    14    1
    14    14    15    2
    15    14    16    1
    16    16    17    1
    17    17    18    2
    18    18    19    1
    19    19    20    2
    20    19    21    1
    21    21    22   ar
    22    22    23   ar
    23    23    24   ar
    24    24    25   ar
    25    25    26   ar
    26    11    27   ar
    27    27     7   ar
    28    18    12    1
    29    26    21   ar
    30    26    17    1
    31     1    28    1
    32     1    29    1
    33     1    30    1
    34     3    31    1
    35     3    32    1
    36     4    33    1
    37     4    34    1
    38     5    35    1
    39     5    36    1
    40     8    37    1
    41     9    38    1
    42    10    39    1
    43    12    40    1
    44    13    41    1
    45    16    42    1
    46    22    43    1
    47    23    44    1
    48    24    45    1
    49    25    46    1
    50    27    47    1
@<TRIPOS>MOLECULE
50333204
 40 41 0 0 0
SMALL
GASTEIGER

@<TRIPOS>ATOM
      1 C           5.8355    1.6753    0.4570 C.3     1  UNL1        0.0736
      2 S           4.1072    1.6921    0.8285 S.O2    1  UNL1        0.0403
      3 O           3.6683    3.1312    0.9546 O.2     1  UNL1       -0.1555
      4 O           3.9731    1.1019    2.2223 O.2     1  UNL1       -0.1555
      5 N           3.1445    0.8311   -0.2876 N.pl3   1  UNL1       -0.2191
      6 C           3.3016   -0.5494   -0.4876 C.ar    1  UNL1        0.0688
      7 C           4.5370   -1.1218   -0.6730 C.ar    1  UNL1       -0.0375
      8 C           4.6328   -2.5019   -0.8963 C.ar    1  UNL1       -0.0599
      9 C           3.4860   -3.2530   -0.9251 C.ar    1  UNL1       -0.0599
     10 C           2.2265   -2.6847   -0.7385 C.ar    1  UNL1       -0.0386
     11 C           2.1253   -1.3261   -0.5178 C.ar    1  UNL1        0.0562
     12 N           0.9024   -0.6550   -0.3150 N.am    1  UNL1       -0.2804
     13 C          -0.4018   -1.2054   -0.3529 C.2     1  UNL1        0.2411
     14 O          -0.5381   -2.4136   -0.5892 O.2     1  UNL1       -0.2705
     15 C          -1.5982   -0.3596   -0.1149 C.2     1  UNL1        0.0010
     16 C          -2.7717   -0.9411   -0.1663 C.2     1  UNL1       -0.0495
     17 C          -4.0316   -0.2284    0.0483 C.ar    1  UNL1       -0.0185
     18 C          -5.2462   -0.9099   -0.0210 C.ar    1  UNL1       -0.0542
     19 C          -6.4187   -0.2440    0.1793 C.ar    1  UNL1       -0.0548
     20 C          -6.4283    1.1047    0.4521 C.ar    1  UNL1        0.0156
     21 C          -5.2544    1.8086    0.5283 C.ar    1  UNL1        0.2737
     22 N          -5.2283    3.1992    0.8075 N.pl3   1  UNL1        0.0796
     23 O          -4.1402    3.7979    0.8673 O.2     1  UNL1        0.0414
     24 O          -6.4045    3.8579    1.0066 O.co2   1  UNL1       -0.5760
     25 C          -4.0604    1.1081    0.3198 C.ar    1  UNL1        0.0227
     26 H           6.2540    2.6336    0.9104 H       1  UNL1        0.0482
     27 H           6.0808    1.7265   -0.6013 H       1  UNL1        0.0482
     28 H           6.3583    0.8345    1.0009 H       1  UNL1        0.0482
     29 H           2.4313    1.4060   -0.8258 H       1  UNL1        0.1733
     30 H           5.4301   -0.5183   -0.6554 H       1  UNL1        0.0637
     31 H           5.5915   -2.9658   -1.0430 H       1  UNL1        0.0618
     32 H           3.5133   -4.3174   -1.0940 H       1  UNL1        0.0618
     33 H           1.3655   -3.3318   -0.7709 H       1  UNL1        0.0637
     34 H           0.9039    0.3908   -0.0969 H       1  UNL1        0.1552
     35 H          -1.4976    0.6862    0.0906 H       1  UNL1        0.0670
     36 H          -2.8001   -2.0260   -0.3838 H       1  UNL1        0.0625
     37 H          -5.1803   -1.9684   -0.2384 H       1  UNL1        0.0623
     38 H          -7.3564   -0.7989    0.1200 H       1  UNL1        0.0620
     39 H          -7.3597    1.6246    0.6094 H       1  UNL1        0.0685
     40 H          -3.1520    1.7100    0.3902 H       1  UNL1        0.0691
@<TRIPOS>UNITY_ATOM_ATTR
22 1
charge 1
24 1
charge -1
@<TRIPOS>BOND
     1     1     2    1
     2     2     3    2
     3     2     4    2
     4     2     5    1
     5     5     6    1
     6     6     7   ar
     7     7     8   ar
     8     8     9   ar
     9     9    10   ar
    10    10    11   ar
    11    11    12    1
    12    12    13   am
    13    13    14    2
    14    13    15    1
    15    15    16    2
    16    16    17    1
    17    17    18   ar
    18    18    19   ar
    19    19    20   ar
    20    20    21   ar
    21    21    22    1
    22    22    23    2
    23    22    24    1
    24    21    25   ar
    25    11     6   ar
    26    25    17   ar
    27     1    26    1
    28     1    27    1
    29     1    28    1
    30     5    29    1
    31     7    30    1
    32     8    31    1
    33     9    32    1
    34    10    33    1
    35    12    34    1
    36    15    35    1
    37    16    36    1
    38    18    37    1
    39    19    38    1
    40    20    39    1
    41    25    40    1
@<TRIPOS>MOLECULE
CHEMBL4164465
 44 46 0 0 0
SMALL
GASTEIGER

@<TRIPOS>ATOM
      1 N          -7.5483    2.0168   -1.0035 N.1     1  UNL1       -0.1908
      2 C          -6.4887    1.6176   -0.7718 C.1     1  UNL1        0.1020
      3 C          -5.1702    1.1045   -0.5025 C.ar    1  UNL1        0.0871
      4 C          -4.6404    1.1276    0.7738 C.ar    1  UNL1       -0.0381
      5 C          -3.3815    0.6301    0.9945 C.ar    1  UNL1       -0.0185
      6 C          -2.6360    0.1085   -0.0300 C.ar    1  UNL1        0.1239
      7 O          -1.3790   -0.3851    0.2072 O.3     1  UNL1       -0.4844
      8 C          -0.4734   -0.9485   -0.6734 C.3     1  UNL1        0.1463
      9 C           0.8569   -0.1860   -0.5292 C.3     1  UNL1        0.0605
     10 N           1.5653   -0.7975    0.5493 N.3     1  UNL1       -0.1700
     11 S           2.2018    0.2806    1.6978 S.O2    1  UNL1        0.0624
     12 O           1.1691    1.1246    2.3715 O.2     1  UNL1       -0.1528
     13 O           3.0029   -0.5171    2.6972 O.2     1  UNL1       -0.1528
     14 C           3.3566    1.3183    0.8630 C.ar    1  UNL1        0.1238
     15 C           3.2343    2.6726    0.7930 C.ar    1  UNL1       -0.0325
     16 C           4.2082    3.3832    0.1066 C.ar    1  UNL1       -0.0415
     17 C           5.2865    2.7811   -0.5031 C.ar    1  UNL1        0.0425
     18 CL          6.5110    3.7149   -1.3711 Cl      1  UNL1       -0.0835
     19 C           5.3865    1.4016   -0.4164 C.ar    1  UNL1       -0.0231
     20 C           4.4244    0.6831    0.2635 C.ar    1  UNL1        0.0686
     21 CL          4.5993   -1.0745    0.3448 Cl      1  UNL1       -0.0815
     22 C           0.7695   -1.8566    1.0829 C.3     1  UNL1        0.0552
     23 C          -0.0097   -2.3121   -0.1318 C.3     1  UNL1        0.1409
     24 O           0.8556   -2.9164   -1.0081 O.3     1  UNL1       -0.3812
     25 C          -1.1857   -3.1757    0.2290 C.3     1  UNL1        0.0778
     26 O          -1.9017   -3.4865   -0.9173 O.3     1  UNL1       -0.3920
     27 C          -3.1485    0.0802   -1.2953 C.ar    1  UNL1        0.0166
     28 C          -4.4140    0.5778   -1.5301 C.ar    1  UNL1        0.1441
     29 F          -4.9211    0.5455   -2.8073 F       1  UNL1       -0.2040
     30 H          -5.2429    1.5480    1.5943 H       1  UNL1        0.0632
     31 H          -2.9898    0.6649    2.0286 H       1  UNL1        0.0654
     32 H          -0.7629   -1.0316   -1.7182 H       1  UNL1        0.0777
     33 H           0.6830    0.8899   -0.4062 H       1  UNL1        0.0481
     34 H           1.4186   -0.3635   -1.4709 H       1  UNL1        0.0481
     35 H           2.3895    3.1494    1.2703 H       1  UNL1        0.0638
     36 H           4.1101    4.4712    0.0500 H       1  UNL1        0.0633
     37 H           6.2076    0.8602   -0.8713 H       1  UNL1        0.0647
     38 H           1.4332   -2.6766    1.3858 H       1  UNL1        0.0474
     39 H           0.0702   -1.5358    1.8817 H       1  UNL1        0.0474
     40 H           0.5956   -2.8498   -1.9519 H       1  UNL1        0.2105
     41 H          -0.7815   -4.1313    0.6213 H       1  UNL1        0.0587
     42 H          -1.8063   -2.7332    1.0028 H       1  UNL1        0.0587
     43 H          -2.8683   -3.4468   -0.7557 H       1  UNL1        0.2095
     44 H          -2.5860   -0.3278   -2.1426 H       1  UNL1        0.0683
@<TRIPOS>BOND
     1     1     2    3
     2     2     3    1
     3     3     4   ar
     4     4     5   ar
     5     5     6   ar
     6     6     7    1
     7     7     8    1
     8     8     9    1
     9     9    10    1
    10    10    11    1
    11    11    12    2
    12    11    13    2
    13    11    14    1
    14    14    15   ar
    15    15    16   ar
    16    16    17   ar
    17    17    18    1
    18    17    19   ar
    19    19    20   ar
    20    20    21    1
    21    10    22    1
    22    22    23    1
    23    23    24    1
    24    23    25    1
    25    25    26    1
    26     6    27   ar
    27    27    28   ar
    28    28    29    1
    29    28     3   ar
    30    23     8    1
    31    20    14   ar
    32     4    30    1
    33     5    31    1
    34     8    32    1
    35     9    33    1
    36     9    34    1
    37    15    35    1
    38    16    36    1
    39    19    37    1
    40    22    38    1
    41    22    39    1
    42    24    40    1
    43    25    41    1
    44    25    42    1
    45    26    43    1
    46    27    44    1
@<TRIPOS>MOLECULE
50333168
 33 34 0 0 0
SMALL
GASTEIGER

@<TRIPOS>ATOM
      1 O           1.5851   -1.6331   -1.8673 O.2     1  UNL1       -0.2705
      2 C           0.9404   -0.9127   -1.0261 C.2     1  UNL1        0.2411
      3 C          -0.5376   -0.8927   -1.1380 C.2     1  UNL1        0.0010
      4 C          -1.2863   -0.1935   -0.3331 C.2     1  UNL1       -0.0495
      5 C          -2.7561   -0.1267   -0.3856 C.ar    1  UNL1       -0.0185
      6 C          -3.4668   -0.8296   -1.3302 C.ar    1  UNL1       -0.0542
      7 C          -4.8540   -0.7658   -1.3788 C.ar    1  UNL1       -0.0548
      8 C          -5.5706   -0.0037   -0.4924 C.ar    1  UNL1        0.0156
      9 C          -4.8331    0.7018    0.4580 C.ar    1  UNL1        0.2737
     10 N          -5.5369    1.5015    1.3928 N.pl3   1  UNL1        0.0796
     11 O          -6.7750    1.5723    1.3666 O.2     1  UNL1        0.0414
     12 O          -4.8345    2.2023    2.3340 O.co2   1  UNL1       -0.5760
     13 C          -3.4649    0.6433    0.5116 C.ar    1  UNL1        0.0227
     14 N           1.6746   -0.2045   -0.0726 N.am    1  UNL1       -0.2819
     15 C           3.0816   -0.1948    0.0698 C.ar    1  UNL1        0.0371
     16 C           3.9976   -0.8640   -0.6824 C.ar    1  UNL1       -0.0402
     17 C           5.3715   -0.7971   -0.4716 C.ar    1  UNL1       -0.0566
     18 C           5.8815   -0.0226    0.5443 C.ar    1  UNL1       -0.0201
     19 C           4.9843    0.6679    1.3249 C.ar    1  UNL1        0.1186
     20 O           5.4863    1.4519    2.3519 O.3     1  UNL1       -0.5067
     21 C           3.6289    0.5887    1.1003 C.ar    1  UNL1        0.0011
     22 H          -1.0158   -1.4835   -1.9210 H       1  UNL1        0.0670
     23 H          -0.8421    0.4009    0.4514 H       1  UNL1        0.0625
     24 H          -2.9687   -1.4610   -2.0736 H       1  UNL1        0.0623
     25 H          -5.4207   -1.3270   -2.1330 H       1  UNL1        0.0620
     26 H          -6.6470    0.0692   -0.5009 H       1  UNL1        0.0685
     27 H          -2.9035    1.2030    1.2633 H       1  UNL1        0.0691
     28 H           1.0819    0.3830    0.6072 H       1  UNL1        0.1551
     29 H           3.6963   -1.4898   -1.4930 H       1  UNL1        0.0636
     30 H           6.0699   -1.3383   -1.0837 H       1  UNL1        0.0619
     31 H           6.9536    0.0393    0.7210 H       1  UNL1        0.0654
     32 H           6.3314    1.9725    2.1554 H       1  UNL1        0.2921
     33 H           2.9486    1.1429    1.7305 H       1  UNL1        0.0673
@<TRIPOS>UNITY_ATOM_ATTR
10 1
charge 1
12 1
charge -1
@<TRIPOS>BOND
     1     1     2    2
     2     2     3    1
     3     3     4    2
     4     4     5    1
     5     5     6   ar
     6     6     7   ar
     7     7     8   ar
     8     8     9   ar
     9     9    10    1
    10    10    11    2
    11    10    12    1
    12     9    13   ar
    13     2    14   am
    14    14    15    1
    15    15    16   ar
    16    16    17   ar
    17    17    18   ar
    18    18    19   ar
    19    19    20    1
    20    19    21   ar
    21    13     5   ar
    22    21    15   ar
    23     3    22    1
    24     4    23    1
    25     6    24    1
    26     7    25    1
    27     8    26    1
    28    13    27    1
    29    14    28    1
    30    16    29    1
    31    17    30    1
    32    18    31    1
    33    20    32    1
    34    21    33    1
@<TRIPOS>MOLECULE
50333171
 36 37 0 0 0
SMALL
GASTEIGER

@<TRIPOS>ATOM
      1 O          -0.8004    0.8314    1.0387 O.2     1  UNL1       -0.2705
      2 C          -0.6252   -0.2102    0.3585 C.2     1  UNL1        0.2411
      3 C           0.7193   -0.5914   -0.1093 C.2     1  UNL1        0.0010
      4 C           1.7338    0.1907    0.2056 C.2     1  UNL1       -0.0495
      5 C           3.1165   -0.0523   -0.1825 C.ar    1  UNL1       -0.0185
      6 C           3.5167   -1.1349   -0.9268 C.ar    1  UNL1       -0.0542
      7 C           4.8647   -1.3032   -1.2623 C.ar    1  UNL1       -0.0548
      8 C           5.8175   -0.3935   -0.8571 C.ar    1  UNL1        0.0156
      9 C           5.4338    0.6983   -0.1099 C.ar    1  UNL1        0.2737
     10 N           6.3745    1.6610    0.3304 N.pl3   1  UNL1        0.0796
     11 O           7.5665    1.5105    0.0327 O.2     1  UNL1        0.0414
     12 O           6.0070    2.7477    1.0717 O.co2   1  UNL1       -0.5760
     13 C           4.1102    0.8428    0.2066 C.ar    1  UNL1        0.0227
     14 N          -1.7706   -0.9979    0.0625 N.am    1  UNL1       -0.2817
     15 C          -3.0796   -0.6151    0.5252 C.ar    1  UNL1        0.0390
     16 C          -3.5262   -1.0648    1.7544 C.ar    1  UNL1       -0.0401
     17 C          -4.7747   -0.7327    2.2566 C.ar    1  UNL1       -0.0600
     18 C          -5.6097    0.0753    1.5108 C.ar    1  UNL1       -0.0613
     19 C          -5.1673    0.5246    0.2860 C.ar    1  UNL1       -0.0546
     20 C          -3.9141    0.1851   -0.2068 C.ar    1  UNL1       -0.0010
     21 C          -3.4593    0.6744   -1.5164 C.3     1  UNL1        0.0710
     22 O          -4.4689    1.4708   -2.0849 O.3     1  UNL1       -0.3904
     23 H           0.9018   -1.4634   -0.6849 H       1  UNL1        0.0670
     24 H           1.5150    1.0843    0.8009 H       1  UNL1        0.0625
     25 H           2.7875   -1.8701   -1.2612 H       1  UNL1        0.0623
     26 H           5.1166   -2.1604   -1.8405 H       1  UNL1        0.0620
     27 H           6.8677   -0.5025   -1.1047 H       1  UNL1        0.0685
     28 H           3.8355    1.7258    0.8048 H       1  UNL1        0.0691
     29 H          -1.6349   -1.8656   -0.5024 H       1  UNL1        0.1551
     30 H          -2.8495   -1.6979    2.3187 H       1  UNL1        0.0636
     31 H          -5.0322   -1.1317    3.2232 H       1  UNL1        0.0618
     32 H          -6.5824    0.3245    1.9197 H       1  UNL1        0.0618
     33 H          -5.8498    1.1561   -0.2702 H       1  UNL1        0.0622
     34 H          -2.5819    1.3319   -1.3802 H       1  UNL1        0.0608
     35 H          -3.2616   -0.1882   -2.1775 H       1  UNL1        0.0608
     36 H          -5.2961    0.9407   -2.2304 H       1  UNL1        0.2098
@<TRIPOS>UNITY_ATOM_ATTR
10 1
charge 1
12 1
charge -1
@<TRIPOS>BOND
     1     1     2    2
     2     2     3    1
     3     3     4    2
     4     4     5    1
     5     5     6   ar
     6     6     7   ar
     7     7     8   ar
     8     8     9   ar
     9     9    10    1
    10    10    11    2
    11    10    12    1
    12     9    13   ar
    13     2    14   am
    14    14    15    1
    15    15    16   ar
    16    16    17   ar
    17    17    18   ar
    18    18    19   ar
    19    19    20   ar
    20    20    21    1
    21    21    22    1
    22    13     5   ar
    23    20    15   ar
    24     3    23    1
    25     4    24    1
    26     6    25    1
    27     7    26    1
    28     8    27    1
    29    13    28    1
    30    14    29    1
    31    16    30    1
    32    17    31    1
    33    18    32    1
    34    19    33    1
    35    21    34    1
    36    21    35    1
    37    22    36    1
@<TRIPOS>MOLECULE
51131371
 45 48 0 0 0
SMALL
GASTEIGER

@<TRIPOS>ATOM
      1 O           0.7884    2.0934    1.2322 O.2     1  UNL1       -0.2702
      2 C           0.9273    0.9884    0.5819 C.2     1  UNL1        0.2449
      3 N          -0.2176    0.2749    0.1576 N.am    1  UNL1       -0.2976
      4 C          -1.5892    0.7101    0.4090 C.3     1  UNL1        0.1082
      5 C          -2.2581    1.2768   -0.7518 C.ar    1  UNL1        0.0674
      6 C          -3.1939    2.2790   -0.6983 C.ar    1  UNL1       -0.0382
      7 C          -3.7767    2.8185   -1.8223 C.ar    1  UNL1       -0.0586
      8 C          -3.3940    2.3208   -3.0455 C.ar    1  UNL1       -0.0436
      9 C          -2.4681    1.3292   -3.1006 C.ar    1  UNL1        0.0279
     10 N          -1.9312    0.8384   -1.9807 N.ar    1  UNL1       -0.2576
     11 C          -2.3261   -0.0333    1.4058 C.ar    1  UNL1        0.0790
     12 N          -2.2510    0.3688    2.7235 N.ar    1  UNL1       -0.2571
     13 C          -2.8256   -0.2447    3.7490 C.ar    1  UNL1        0.0280
     14 C          -3.5579   -1.3716    3.4995 C.ar    1  UNL1       -0.0430
     15 C          -3.6646   -1.8115    2.2120 C.ar    1  UNL1       -0.0469
     16 C          -3.0541   -1.1591    1.1166 C.ar    1  UNL1        0.0782
     17 C          -3.2358   -1.6326   -0.2450 C.3     1  UNL1        0.4191
     18 F          -3.9943   -2.8384   -0.1315 F       1  UNL1       -0.1658
     19 F          -4.1430   -0.8814   -0.9839 F       1  UNL1       -0.1658
     20 F          -2.1533   -2.0587   -0.9308 F       1  UNL1       -0.1658
     21 C           2.2894    0.5540    0.3310 C.ar    1  UNL1        0.0388
     22 C           3.3820    1.2915    0.7689 C.ar    1  UNL1       -0.0489
     23 C           4.6630    0.8726    0.5270 C.ar    1  UNL1       -0.0519
     24 C           4.9557   -0.2866   -0.1542 C.ar    1  UNL1        0.0004
     25 C           6.2563   -0.6822   -0.3824 C.ar    1  UNL1       -0.0511
     26 C           6.5100   -1.8503   -1.0689 C.ar    1  UNL1       -0.0430
     27 C           5.4036   -2.5672   -1.4948 C.ar    1  UNL1        0.0283
     28 N           4.1406   -2.1639   -1.2620 N.ar    1  UNL1       -0.2550
     29 C           3.8811   -1.0260   -0.5932 C.ar    1  UNL1        0.0717
     30 C           2.5621   -0.6039   -0.3495 C.ar    1  UNL1       -0.0236
     31 H          -0.0512   -0.6002   -0.3589 H       1  UNL1        0.1500
     32 H          -1.3626    1.7234    0.9831 H       1  UNL1        0.0630
     33 H          -3.4717    2.6476    0.2909 H       1  UNL1        0.0636
     34 H          -4.5139    3.6079   -1.7801 H       1  UNL1        0.0619
     35 H          -3.8093    2.6955   -3.9804 H       1  UNL1        0.0633
     36 H          -2.1204    0.8891   -4.0476 H       1  UNL1        0.0829
     37 H          -2.6991    0.1644    4.7589 H       1  UNL1        0.0829
     38 H          -4.0302   -1.8852    4.3066 H       1  UNL1        0.0633
     39 H          -4.2410   -2.7046    1.9865 H       1  UNL1        0.0624
     40 H           3.1538    2.2119    1.3098 H       1  UNL1        0.0625
     41 H           5.4982    1.4620    0.8768 H       1  UNL1        0.0624
     42 H           7.1056   -0.0869   -0.0290 H       1  UNL1        0.0625
     43 H           7.4959   -2.2226   -1.2845 H       1  UNL1        0.0633
     44 H           5.5530   -3.4879   -2.0361 H       1  UNL1        0.0830
     45 H           1.7680   -1.2195   -0.7146 H       1  UNL1        0.0646
@<TRIPOS>BOND
     1     1     2    2
     2     2     3   am
     3     3     4    1
     4     4     5    1
     5     5     6   ar
     6     6     7   ar
     7     7     8   ar
     8     8     9   ar
     9     9    10   ar
    10     4    11    1
    11    11    12   ar
    12    12    13   ar
    13    13    14   ar
    14    14    15   ar
    15    15    16   ar
    16    16    17    1
    17    17    18    1
    18    17    19    1
    19    17    20    1
    20     2    21    1
    21    21    22   ar
    22    22    23   ar
    23    23    24   ar
    24    24    25   ar
    25    25    26   ar
    26    26    27   ar
    27    27    28   ar
    28    28    29   ar
    29    29    30   ar
    30    10     5   ar
    31    16    11   ar
    32    30    21   ar
    33    29    24   ar
    34     3    31    1
    35     4    32    1
    36     6    33    1
    37     7    34    1
    38     8    35    1
    39     9    36    1
    40    13    37    1
    41    14    38    1
    42    15    39    1
    43    22    40    1
    44    23    41    1
    45    25    42    1
    46    26    43    1
    47    27    44    1
    48    30    45    1
@<TRIPOS>MOLECULE
51131336
 42 45 0 0 0
SMALL
GASTEIGER

@<TRIPOS>ATOM
      1 O           0.5500    0.1587    2.1579 O.2     1  UNL1       -0.2702
      2 C           0.6627    0.2401    0.8840 C.2     1  UNL1        0.2449
      3 N          -0.5433    0.4656    0.1602 N.am    1  UNL1       -0.2971
      4 C          -1.8188    0.6004    0.7409 C.3     1  UNL1        0.1146
      5 C          -2.5468    1.8174    0.2185 C.ar    1  UNL1        0.1044
      6 N          -2.7702    2.4375   -0.7411 N.ar    1  UNL1       -0.2500
      7 C          -3.4767    3.4958   -0.9401 C.ar    1  UNL1        0.0351
      8 C          -4.1039    4.0113    0.2158 C.ar    1  UNL1       -0.0045
      9 S          -3.5630    2.8539    1.4605 S.2     1  UNL1       -0.0783
     10 C          -2.7669   -0.4841    0.8194 C.ar    1  UNL1        0.0796
     11 N          -3.6346   -0.4699    1.8930 N.ar    1  UNL1       -0.2570
     12 C          -4.5872   -1.3469    2.1197 C.ar    1  UNL1        0.0280
     13 C          -4.8009   -2.4007    1.2566 C.ar    1  UNL1       -0.0430
     14 C          -3.9826   -2.4772    0.1782 C.ar    1  UNL1       -0.0469
     15 C          -2.9681   -1.5316   -0.0495 C.ar    1  UNL1        0.0783
     16 C          -2.1032   -1.6975   -1.2137 C.3     1  UNL1        0.4191
     17 F          -0.7712   -1.9340   -0.9210 F       1  UNL1       -0.1658
     18 F          -2.4776   -2.8797   -1.8711 F       1  UNL1       -0.1658
     19 F          -2.2912   -0.7317   -2.1856 F       1  UNL1       -0.1658
     20 C           1.9759    0.1024    0.2632 C.ar    1  UNL1        0.0388
     21 C           2.1570    0.1354   -1.0890 C.ar    1  UNL1       -0.0489
     22 C           3.3968    0.0146   -1.7160 C.ar    1  UNL1       -0.0519
     23 C           4.5084   -0.1479   -0.9230 C.ar    1  UNL1        0.0004
     24 C           5.7426   -0.2653   -1.5289 C.ar    1  UNL1       -0.0511
     25 C           6.8588   -0.4247   -0.7471 C.ar    1  UNL1       -0.0430
     26 C           6.6814   -0.4593    0.6264 C.ar    1  UNL1        0.0283
     27 N           5.4582   -0.3423    1.2035 N.ar    1  UNL1       -0.2550
     28 C           4.3489   -0.1844    0.4439 C.ar    1  UNL1        0.0717
     29 C           3.0957   -0.0613    1.0490 C.ar    1  UNL1       -0.0236
     30 H          -0.4286    0.5726   -0.8658 H       1  UNL1        0.1501
     31 H          -1.5879    0.8637    1.8390 H       1  UNL1        0.0635
     32 H          -3.6189    4.0024   -1.8988 H       1  UNL1        0.0835
     33 H          -4.7796    4.9217    0.3387 H       1  UNL1        0.0709
     34 H          -5.2642   -1.3113    2.9837 H       1  UNL1        0.0829
     35 H          -5.5772   -3.1408    1.4125 H       1  UNL1        0.0633
     36 H          -4.0933   -3.2734   -0.5373 H       1  UNL1        0.0624
     37 H           1.3245    0.2587   -1.7584 H       1  UNL1        0.0625
     38 H           3.5219    0.0433   -2.7920 H       1  UNL1        0.0624
     39 H           5.8616   -0.2360   -2.5920 H       1  UNL1        0.0625
     40 H           7.8333   -0.5174   -1.2066 H       1  UNL1        0.0633
     41 H           7.5930   -0.5874    1.2027 H       1  UNL1        0.0830
     42 H           2.9853   -0.0908    2.1101 H       1  UNL1        0.0646
@<TRIPOS>BOND
     1     1     2    2
     2     2     3   am
     3     3     4    1
     4     4     5    1
     5     5     6   ar
     6     6     7   ar
     7     7     8   ar
     8     8     9   ar
     9     4    10    1
    10    10    11   ar
    11    11    12   ar
    12    12    13   ar
    13    13    14   ar
    14    14    15   ar
    15    15    16    1
    16    16    17    1
    17    16    18    1
    18    16    19    1
    19     2    20    1
    20    20    21   ar
    21    21    22   ar
    22    22    23   ar
    23    23    24   ar
    24    24    25   ar
    25    25    26   ar
    26    26    27   ar
    27    27    28   ar
    28    28    29   ar
    29     9     5   ar
    30    15    10   ar
    31    29    20   ar
    32    28    23   ar
    33     3    30    1
    34     4    31    1
    35     7    32    1
    36     8    33    1
    37    12    34    1
    38    13    35    1
    39    14    36    1
    40    21    37    1
    41    22    38    1
    42    24    39    1
    43    25    40    1
    44    26    41    1
    45    29    42    1
@<TRIPOS>MOLECULE
51028005
 43 44 0 0 0
SMALL
GASTEIGER

@<TRIPOS>ATOM
      1 C           7.1613    0.2362    0.9302 C.3     1  UNL1        0.0788
      2 O           6.4977   -0.8928    0.4348 O.3     1  UNL1       -0.4951
      3 C           5.2189   -0.7717   -0.0685 C.ar    1  UNL1        0.1203
      4 C           4.6021    0.4464   -0.0833 C.ar    1  UNL1       -0.0165
      5 C           3.3134    0.5560   -0.5930 C.ar    1  UNL1       -0.0157
      6 C           2.6357   -0.5292   -1.0857 C.ar    1  UNL1        0.1335
      7 O           1.3690   -0.3740   -1.5773 O.3     1  UNL1       -0.4113
      8 C           0.2067   -0.4876   -0.8261 C.2     1  UNL1        0.4099
      9 O           0.2929   -0.7484    0.3825 O.2     1  UNL1       -0.2257
     10 N          -1.0868   -0.3170   -1.3847 N.am    1  UNL1       -0.2506
     11 C          -2.2237   -0.4506   -0.5444 C.ar    1  UNL1        0.0401
     12 C          -2.8668   -1.6563   -0.3445 C.ar    1  UNL1       -0.0372
     13 C          -3.9568   -1.8133    0.4541 C.ar    1  UNL1       -0.0487
     14 C          -4.6104   -3.1599    0.6278 C.3     1  UNL1       -0.0397
     15 C          -4.4594   -0.7201    1.1062 C.ar    1  UNL1       -0.0585
     16 C          -3.8599    0.5190    0.9479 C.ar    1  UNL1       -0.0563
     17 C          -2.7481    0.6385    0.1234 C.ar    1  UNL1       -0.0235
     18 C          -2.1279    1.9795   -0.0261 C.3     1  UNL1       -0.0198
     19 C          -2.7366    2.7347   -1.1688 C.3     1  UNL1       -0.0586
     20 C          -2.2361    2.7088    1.2840 C.3     1  UNL1       -0.0586
     21 C           3.2412   -1.7561   -1.0772 C.ar    1  UNL1       -0.0157
     22 C           4.5401   -1.8900   -0.5681 C.ar    1  UNL1       -0.0165
     23 H           6.5340    0.7027    1.7127 H       1  UNL1        0.0660
     24 H           7.3227    0.9966    0.1264 H       1  UNL1        0.0660
     25 H           8.1461   -0.0397    1.3759 H       1  UNL1        0.0660
     26 H           5.0989    1.3385    0.2968 H       1  UNL1        0.0655
     27 H           2.8429    1.5269   -0.5961 H       1  UNL1        0.0655
     28 H          -1.2178   -0.0970   -2.3935 H       1  UNL1        0.1582
     29 H          -2.4776   -2.5351   -0.8573 H       1  UNL1        0.0639
     30 H          -3.8299   -3.8579    0.9950 H       1  UNL1        0.0278
     31 H          -5.4787   -3.0856    1.2816 H       1  UNL1        0.0278
     32 H          -4.9116   -3.5154   -0.3934 H       1  UNL1        0.0278
     33 H          -5.3390   -0.8277    1.7553 H       1  UNL1        0.0620
     34 H          -4.2950    1.3390    1.4816 H       1  UNL1        0.0621
     35 H          -1.0551    1.8057   -0.2752 H       1  UNL1        0.0344
     36 H          -1.9727    3.4463   -1.5473 H       1  UNL1        0.0235
     37 H          -3.0045    1.9796   -1.9510 H       1  UNL1        0.0235
     38 H          -3.6076    3.3456   -0.8616 H       1  UNL1        0.0235
     39 H          -3.0265    3.4883    1.2527 H       1  UNL1        0.0235
     40 H          -1.2549    3.1797    1.5163 H       1  UNL1        0.0235
     41 H          -2.4856    2.0344    2.1174 H       1  UNL1        0.0235
     42 H           2.7862   -2.6565   -1.4417 H       1  UNL1        0.0655
     43 H           5.0590   -2.8205   -0.5371 H       1  UNL1        0.0655
@<TRIPOS>BOND
     1     1     2    1
     2     2     3    1
     3     3     4   ar
     4     4     5   ar
     5     5     6   ar
     6     6     7    1
     7     7     8    1
     8     8     9    2
     9     8    10   am
    10    10    11    1
    11    11    12   ar
    12    12    13   ar
    13    13    14    1
    14    13    15   ar
    15    15    16   ar
    16    16    17   ar
    17    17    18    1
    18    18    19    1
    19    18    20    1
    20     6    21   ar
    21    21    22   ar
    22    22     3   ar
    23    17    11   ar
    24     1    23    1
    25     1    24    1
    26     1    25    1
    27     4    26    1
    28     5    27    1
    29    10    28    1
    30    12    29    1
    31    14    30    1
    32    14    31    1
    33    14    32    1
    34    15    33    1
    35    16    34    1
    36    18    35    1
    37    19    36    1
    38    19    37    1
    39    19    38    1
    40    20    39    1
    41    20    40    1
    42    20    41    1
    43    21    42    1
    44    22    43    1
@<TRIPOS>MOLECULE
51324113
 84 89 0 0 0
SMALL
GASTEIGER

@<TRIPOS>ATOM
      1 C          -7.3780   -3.6247   -0.0362 C.3     1  UNL1        0.0790
      2 O          -7.2673   -2.4112   -0.7757 O.3     1  UNL1       -0.4914
      3 C          -6.0133   -1.8457   -1.0391 C.ar    1  UNL1        0.1618
      4 C          -4.8672   -2.4620   -0.5833 C.ar    1  UNL1       -0.0127
      5 C          -3.5978   -1.9425   -0.8174 C.ar    1  UNL1       -0.0369
      6 C          -3.5123   -0.7803   -1.5259 C.ar    1  UNL1       -0.0157
      7 C          -4.6791   -0.1565   -1.9881 C.ar    1  UNL1       -0.0108
      8 C          -5.9387   -0.6706   -1.7564 C.ar    1  UNL1        0.1618
      9 O          -7.0911   -0.0478   -2.2165 O.3     1  UNL1       -0.4914
     10 C          -6.9881    1.1573   -2.9495 C.3     1  UNL1        0.0790
     11 C          -2.1865   -0.1278   -1.8163 C.3     1  UNL1        0.0783
     12 C          -2.1704    1.2348   -1.2471 C.ar    1  UNL1       -0.0225
     13 C          -2.0860    1.3792    0.1271 C.ar    1  UNL1       -0.0559
     14 C          -2.0717    2.6292    0.7168 C.ar    1  UNL1       -0.0498
     15 C          -2.1412    3.7793   -0.0489 C.ar    1  UNL1        0.0548
     16 C          -2.1261    5.1227    0.5758 C.3     1  UNL1        0.4174
     17 F          -1.6137    5.0822    1.8617 F       1  UNL1       -0.1659
     18 F          -1.2869    5.9523   -0.1617 F       1  UNL1       -0.1659
     19 F          -3.3859    5.7297    0.5529 F       1  UNL1       -0.1659
     20 C          -2.2257    3.6166   -1.4305 C.ar    1  UNL1       -0.0498
     21 C          -2.2397    2.3657   -2.0154 C.ar    1  UNL1       -0.0559
     22 N          -1.0934   -0.9428   -1.2761 N.am    1  UNL1       -0.2741
     23 C           0.0982   -0.3552   -0.8748 C.2     1  UNL1        0.3063
     24 O           0.2125    0.9118   -1.2398 O.2     1  UNL1       -0.2524
     25 N           1.1846   -0.8809   -0.1542 N.am    1  UNL1       -0.2741
     26 C           1.1689   -2.1589    0.4978 C.3     1  UNL1        0.0210
     27 C           2.2126   -3.0727   -0.1757 C.3     1  UNL1       -0.0113
     28 C           3.5078   -2.3518    0.1671 C.ar    1  UNL1       -0.0369
     29 C           4.6252   -3.1185    0.4601 C.ar    1  UNL1       -0.0127
     30 C           5.8219   -2.5218    0.8062 C.ar    1  UNL1        0.1618
     31 O           6.9559   -3.2627    1.1045 O.3     1  UNL1       -0.4914
     32 C           6.8529   -4.6742    1.0441 C.3     1  UNL1        0.0790
     33 C           5.8996   -1.1365    0.8592 C.ar    1  UNL1        0.1618
     34 O           7.1125   -0.5687    1.2099 O.3     1  UNL1       -0.4914
     35 C           7.3090    0.8291    1.2980 C.3     1  UNL1        0.0790
     36 C           4.8081   -0.3672    0.5728 C.ar    1  UNL1       -0.0108
     37 C           3.5864   -0.9896    0.2189 C.ar    1  UNL1       -0.0157
     38 C           2.4443   -0.1269   -0.0997 C.3     1  UNL1        0.0783
     39 C           2.3527    1.1071    0.6810 C.ar    1  UNL1       -0.0225
     40 C           2.9315    2.2504    0.1763 C.ar    1  UNL1       -0.0559
     41 C           2.8751    3.4325    0.8549 C.ar    1  UNL1       -0.0498
     42 C           2.2376    3.5307    2.0722 C.ar    1  UNL1        0.0548
     43 C           2.1891    4.8337    2.7927 C.3     1  UNL1        0.4174
     44 F           1.8040    4.6707    4.1075 F       1  UNL1       -0.1659
     45 F           1.3169    5.7169    2.1824 F       1  UNL1       -0.1659
     46 F           3.4468    5.4105    2.7833 F       1  UNL1       -0.1659
     47 C           1.6652    2.3942    2.5687 C.ar    1  UNL1       -0.0498
     48 C           1.7097    1.1982    1.9048 C.ar    1  UNL1       -0.0559
     49 C          -1.3046   -2.3622   -1.3064 C.3     1  UNL1        0.0210
     50 C          -2.3847   -2.6667   -0.2948 C.3     1  UNL1       -0.0113
     51 H          -7.2290   -3.4467    1.0490 H       1  UNL1        0.0660
     52 H          -6.6434   -4.3453   -0.4206 H       1  UNL1        0.0660
     53 H          -8.4249   -3.9679   -0.1715 H       1  UNL1        0.0660
     54 H          -4.8866   -3.3955   -0.0113 H       1  UNL1        0.0658
     55 H          -4.5970    0.7666   -2.5501 H       1  UNL1        0.0659
     56 H          -6.3169    1.0777   -3.8347 H       1  UNL1        0.0660
     57 H          -7.9788    1.4869   -3.3359 H       1  UNL1        0.0660
     58 H          -6.5982    1.9973   -2.3341 H       1  UNL1        0.0660
     59 H          -2.0672   -0.1164   -2.9084 H       1  UNL1        0.0601
     60 H          -2.0315    0.5166    0.7426 H       1  UNL1        0.0621
     61 H          -2.0063    2.7789    1.8018 H       1  UNL1        0.0623
     62 H          -2.2807    4.5432   -2.0076 H       1  UNL1        0.0623
     63 H          -2.3070    2.3122   -3.0850 H       1  UNL1        0.0621
     64 H           0.2557   -2.6526    0.6975 H       1  UNL1        0.0468
     65 H           1.6401   -1.9729    1.5325 H       1  UNL1        0.0468
     66 H           2.1422   -4.0444    0.3299 H       1  UNL1        0.0328
     67 H           2.0351   -3.1076   -1.2503 H       1  UNL1        0.0328
     68 H           4.5247   -4.1906    0.4058 H       1  UNL1        0.0658
     69 H           6.7148   -5.0322    0.0083 H       1  UNL1        0.0660
     70 H           7.7482   -5.1776    1.4482 H       1  UNL1        0.0660
     71 H           5.9391   -4.9759    1.6291 H       1  UNL1        0.0660
     72 H           6.6712    1.1724    2.1599 H       1  UNL1        0.0660
     73 H           8.3559    1.0558    1.5846 H       1  UNL1        0.0660
     74 H           6.9676    1.3618    0.4041 H       1  UNL1        0.0660
     75 H           4.8302    0.7226    0.6031 H       1  UNL1        0.0659
     76 H           2.6266    0.1911   -1.1860 H       1  UNL1        0.0601
     77 H           3.4584    2.2499   -0.7897 H       1  UNL1        0.0621
     78 H           3.3471    4.3292    0.4242 H       1  UNL1        0.0623
     79 H           1.1603    2.4850    3.5382 H       1  UNL1        0.0623
     80 H           1.2497    0.2880    2.3063 H       1  UNL1        0.0621
     81 H          -0.4357   -3.0026   -1.3048 H       1  UNL1        0.0468
     82 H          -1.8658   -2.5376   -2.3186 H       1  UNL1        0.0468
     83 H          -2.1262   -2.3244    0.7159 H       1  UNL1        0.0328
     84 H          -2.5508   -3.7534   -0.2396 H       1  UNL1        0.0328
@<TRIPOS>BOND
     1     1     2    1
     2     2     3    1
     3     3     4   ar
     4     4     5   ar
     5     5     6   ar
     6     6     7   ar
     7     7     8   ar
     8     8     9    1
     9     9    10    1
    10     6    11    1
    11    11    12    1
    12    12    13   ar
    13    13    14   ar
    14    14    15   ar
    15    15    16    1
    16    16    17    1
    17    16    18    1
    18    16    19    1
    19    15    20   ar
    20    20    21   ar
    21    11    22    1
    22    22    23   am
    23    23    24    2
    24    23    25   am
    25    25    26    1
    26    26    27    1
    27    27    28    1
    28    28    29   ar
    29    29    30   ar
    30    30    31    1
    31    31    32    1
    32    30    33   ar
    33    33    34    1
    34    34    35    1
    35    33    36   ar
    36    36    37   ar
    37    37    38    1
    38    38    39    1
    39    39    40   ar
    40    40    41   ar
    41    41    42   ar
    42    42    43    1
    43    43    44    1
    44    43    45    1
    45    43    46    1
    46    42    47   ar
    47    47    48   ar
    48    22    49    1
    49    49    50    1
    50     8     3   ar
    51    21    12   ar
    52    38    25    1
    53    48    39   ar
    54    50     5    1
    55    37    28   ar
    56     1    51    1
    57     1    52    1
    58     1    53    1
    59     4    54    1
    60     7    55    1
    61    10    56    1
    62    10    57    1
    63    10    58    1
    64    11    59    1
    65    13    60    1
    66    14    61    1
    67    20    62    1
    68    21    63    1
    69    26    64    1
    70    26    65    1
    71    27    66    1
    72    27    67    1
    73    29    68    1
    74    32    69    1
    75    32    70    1
    76    32    71    1
    77    35    72    1
    78    35    73    1
    79    35    74    1
    80    36    75    1
    81    38    76    1
    82    40    77    1
    83    41    78    1
    84    47    79    1
    85    48    80    1
    86    49    81    1
    87    49    82    1
    88    50    83    1
    89    50    84    1
@<TRIPOS>MOLECULE
90645465
 32 34 0 0 0
SMALL
GASTEIGER

@<TRIPOS>ATOM
      1 C          -1.1006    2.6220    1.8643 C.3     1  UNL1        0.0788
      2 O          -0.4497    1.5329    1.2933 O.3     1  UNL1       -0.4944
      3 C          -0.9819    0.6175    0.4285 C.ar    1  UNL1        0.1298
      4 C          -2.3011    0.7224    0.0354 C.ar    1  UNL1        0.0061
      5 C          -2.8713   -0.1833   -0.8358 C.ar    1  UNL1        0.0692
      6 N          -4.0930   -0.3362   -1.3842 N.ar    1  UNL1       -0.2768
      7 N          -4.1079   -1.3990   -2.1733 N.ar    1  UNL1       -0.1812
      8 C          -2.8764   -1.9533   -2.1427 C.ar    1  UNL1        0.0569
      9 C          -2.0720   -1.2048   -1.3039 C.ar    1  UNL1        0.0203
     10 C          -0.7486   -1.3047   -0.9056 C.ar    1  UNL1       -0.0398
     11 C          -0.1744   -0.4009   -0.0344 C.ar    1  UNL1        0.0251
     12 C           1.2244   -0.5295    0.3697 C.ar    1  UNL1       -0.0027
     13 C           1.5357   -1.2755    1.4873 C.ar    1  UNL1       -0.0534
     14 C           2.8164   -1.4634    1.9577 C.ar    1  UNL1       -0.0612
     15 C           3.8550   -0.8750    1.2781 C.ar    1  UNL1       -0.0612
     16 C           3.5637   -0.1268    0.1604 C.ar    1  UNL1       -0.0495
     17 C           2.2665    0.0546   -0.3033 C.ar    1  UNL1        0.0626
     18 C           1.9953    0.8646   -1.5064 C.3     1  UNL1        0.4180
     19 F           1.3692    0.0979   -2.4833 F       1  UNL1       -0.1659
     20 F           1.2655    1.9769   -1.1946 F       1  UNL1       -0.1659
     21 F           3.2139    1.2520   -2.0621 F       1  UNL1       -0.1659
     22 H          -1.5163    2.4065    2.8892 H       1  UNL1        0.0660
     23 H          -1.9304    3.0359    1.2765 H       1  UNL1        0.0660
     24 H          -0.3601    3.4648    1.9958 H       1  UNL1        0.0660
     25 H          -2.9627    1.5182    0.3863 H       1  UNL1        0.0676
     26 H          -4.9223    0.2867   -1.2207 H       1  UNL1        0.1889
     27 H          -2.5101   -2.8343   -2.6617 H       1  UNL1        0.0854
     28 H          -0.1296   -2.1257   -1.2902 H       1  UNL1        0.0632
     29 H           0.7435   -1.7669    2.0666 H       1  UNL1        0.0624
     30 H           3.0309   -2.0517    2.8342 H       1  UNL1        0.0618
     31 H           4.8940   -0.9870    1.6019 H       1  UNL1        0.0618
     32 H           4.3343    0.3651   -0.4231 H       1  UNL1        0.0623
@<TRIPOS>BOND
     1     1     2    1
     2     2     3    1
     3     3     4   ar
     4     4     5   ar
     5     5     6   ar
     6     6     7   ar
     7     7     8   ar
     8     8     9   ar
     9     9    10   ar
    10    10    11   ar
    11    11    12    1
    12    12    13   ar
    13    13    14   ar
    14    14    15   ar
    15    15    16   ar
    16    16    17   ar
    17    17    18    1
    18    18    19    1
    19    18    20    1
    20    18    21    1
    21    11     3   ar
    22    17    12   ar
    23     9     5   ar
    24     1    22    1
    25     1    23    1
    26     1    24    1
    27     4    25    1
    28     6    26    1
    29     8    27    1
    30    10    28    1
    31    13    29    1
    32    14    30    1
    33    15    31    1
    34    16    32    1
@<TRIPOS>MOLECULE
50333155
 36 38 0 0 0
SMALL
GASTEIGER

@<TRIPOS>ATOM
      1 O          -1.5413   -2.3350   -0.3404 O.2     1  UNL1       -0.2519
      2 C          -0.9841   -1.2097   -0.1505 C.2     1  UNL1        0.3110
      3 N           0.4659   -1.1776   -0.1988 N.am    1  UNL1       -0.2687
      4 C           1.1668    0.0341    0.0046 C.2     1  UNL1        0.0395
      5 C           2.6373    0.0450   -0.0508 C.ar    1  UNL1       -0.0036
      6 C           3.3458    1.2078    0.1443 C.ar    1  UNL1       -0.0464
      7 C           4.7476    1.1620    0.0805 C.ar    1  UNL1        0.0162
      8 C           5.4293   -0.0153   -0.1720 C.ar    1  UNL1        0.2732
      9 N           6.8416   -0.0344   -0.2312 N.pl3   1  UNL1        0.0796
     10 O           7.4804    1.0054   -0.0569 O.2     1  UNL1        0.0414
     11 O           7.4897   -1.2029   -0.4807 O.co2   1  UNL1       -0.5760
     12 C           4.7053   -1.1566   -0.3624 C.ar    1  UNL1        0.0162
     13 C           3.3058   -1.1291   -0.3022 C.ar    1  UNL1       -0.0464
     14 C           0.4583    1.1212    0.2396 C.2     1  UNL1       -0.0445
     15 C          -0.9965    1.2055    0.3143 C.3     1  UNL1        0.0414
     16 N          -1.7096   -0.0320    0.0979 N.am    1  UNL1       -0.2513
     17 C          -3.1208    0.0008    0.1348 C.ar    1  UNL1        0.0415
     18 C          -3.7241    1.2279    0.4474 C.ar    1  UNL1       -0.0400
     19 C          -5.0939    1.3397    0.4950 C.ar    1  UNL1       -0.0566
     20 C          -5.8952    0.2608    0.2396 C.ar    1  UNL1       -0.0201
     21 C          -5.3552   -0.9506   -0.0683 C.ar    1  UNL1        0.1186
     22 O          -6.1452   -2.0707   -0.3341 O.3     1  UNL1       -0.5067
     23 C          -3.9582   -1.0517   -0.1138 C.ar    1  UNL1        0.0013
     24 H           0.9272   -2.0924   -0.3895 H       1  UNL1        0.1564
     25 H           2.9214    2.1750    0.3465 H       1  UNL1        0.0626
     26 H           5.3204    2.0661    0.2313 H       1  UNL1        0.0685
     27 H           5.2301   -2.0761   -0.5593 H       1  UNL1        0.0685
     28 H           2.8143   -2.0764   -0.4645 H       1  UNL1        0.0626
     29 H           1.0620    2.0352    0.3878 H       1  UNL1        0.0606
     30 H          -1.3109    1.5306    1.3538 H       1  UNL1        0.0513
     31 H          -1.3672    2.0184   -0.3506 H       1  UNL1        0.0513
     32 H          -3.1320    2.1213    0.6601 H       1  UNL1        0.0636
     33 H          -5.5306    2.3003    0.7392 H       1  UNL1        0.0619
     34 H          -6.9847    0.3498    0.2776 H       1  UNL1        0.0654
     35 H          -5.9140   -2.5690   -1.2037 H       1  UNL1        0.2921
     36 H          -3.5856   -2.0276   -0.3655 H       1  UNL1        0.0673
@<TRIPOS>UNITY_ATOM_ATTR
9 1
charge 1
11 1
charge -1
@<TRIPOS>BOND
     1     1     2    2
     2     2     3   am
     3     3     4    1
     4     4     5    1
     5     5     6   ar
     6     6     7   ar
     7     7     8   ar
     8     8     9    1
     9     9    10    2
    10     9    11    1
    11     8    12   ar
    12    12    13   ar
    13     4    14    2
    14    14    15    1
    15    15    16    1
    16    16    17    1
    17    17    18   ar
    18    18    19   ar
    19    19    20   ar
    20    20    21   ar
    21    21    22    1
    22    21    23   ar
    23    16     2   am
    24    23    17   ar
    25    13     5   ar
    26     3    24    1
    27     6    25    1
    28     7    26    1
    29    12    27    1
    30    13    28    1
    31    14    29    1
    32    15    30    1
    33    15    31    1
    34    18    32    1
    35    19    33    1
    36    20    34    1
    37    22    35    1
    38    23    36    1
@<TRIPOS>MOLECULE
CHEMBL3900408
 46 48 0 0 0
SMALL
GASTEIGER

@<TRIPOS>ATOM
      1 N          -1.0949    2.2105   -3.5941 N.am    1  UNL1       -0.3275
      2 C          -0.3838    1.1445   -2.9515 C.2     1  UNL1        0.2356
      3 O          -0.1205    0.1617   -3.6861 O.2     1  UNL1       -0.2736
      4 C          -0.0288    1.2646   -1.5478 C.3     1  UNL1        0.1278
      5 C          -0.9184    2.1430   -0.7410 C.ar    1  UNL1       -0.0182
      6 C          -1.0225    3.5062   -1.1191 C.ar    1  UNL1       -0.0563
      7 C          -1.7737    4.4271   -0.4748 C.ar    1  UNL1       -0.0614
      8 C          -2.4988    4.0395    0.6307 C.ar    1  UNL1       -0.0617
      9 C          -2.4219    2.7255    1.0277 C.ar    1  UNL1       -0.0614
     10 C          -1.6330    1.7755    0.3452 C.ar    1  UNL1       -0.0563
     11 N           0.5686    0.1312   -0.9161 N.am    1  UNL1       -0.2776
     12 C           0.0490   -1.2018   -0.9414 C.3     1  UNL1        0.0411
     13 C          -0.8121   -1.7253    0.0801 C.ar    1  UNL1       -0.0301
     14 C          -0.4203   -2.2773    1.2777 C.ar    1  UNL1       -0.0571
     15 C          -1.3215   -2.7995    2.1853 C.ar    1  UNL1       -0.0615
     16 C          -2.6715   -2.7898    1.9249 C.ar    1  UNL1       -0.0617
     17 C          -3.0997   -2.2452    0.7360 C.ar    1  UNL1       -0.0615
     18 C          -2.1988   -1.7336   -0.1499 C.ar    1  UNL1       -0.0571
     19 C           1.8760    0.2973   -0.3288 C.2     1  UNL1        0.2478
     20 O           2.3674    1.4717   -0.4420 O.2     1  UNL1       -0.2699
     21 C           2.6607   -0.6821    0.3470 C.ar    1  UNL1        0.0369
     22 C           2.8297   -0.5622    1.7255 C.ar    1  UNL1       -0.0496
     23 C           3.5968   -1.4716    2.4212 C.ar    1  UNL1       -0.0610
     24 C           4.2252   -2.5280    1.8030 C.ar    1  UNL1       -0.0617
     25 C           4.0720   -2.6658    0.4418 C.ar    1  UNL1       -0.0610
     26 C           3.3002   -1.7457   -0.2393 C.ar    1  UNL1       -0.0496
     27 H          -2.0203    2.4787   -3.2020 H       1  UNL1        0.1450
     28 H          -0.7577    2.7363   -4.4199 H       1  UNL1        0.1450
     29 H           0.9141    2.0107   -1.5702 H       1  UNL1        0.0648
     30 H          -0.4393    3.8053   -1.9901 H       1  UNL1        0.0621
     31 H          -1.7845    5.4512   -0.8508 H       1  UNL1        0.0618
     32 H          -3.1028    4.7854    1.1478 H       1  UNL1        0.0618
     33 H          -2.9801    2.3832    1.8937 H       1  UNL1        0.0618
     34 H          -1.6224    0.7799    0.7492 H       1  UNL1        0.0621
     35 H           0.8967   -1.9565   -1.0666 H       1  UNL1        0.0514
     36 H          -0.4431   -1.2915   -1.9722 H       1  UNL1        0.0514
     37 H           0.6271   -2.3310    1.5528 H       1  UNL1        0.0621
     38 H          -0.9934   -3.2276    3.1200 H       1  UNL1        0.0618
     39 H          -3.3964   -3.2052    2.6441 H       1  UNL1        0.0618
     40 H          -4.1611   -2.2175    0.4927 H       1  UNL1        0.0618
     41 H          -2.5647   -1.3072   -1.0917 H       1  UNL1        0.0621
     42 H           2.3640    0.2422    2.2653 H       1  UNL1        0.0625
     43 H           3.7341   -1.3781    3.5127 H       1  UNL1        0.0618
     44 H           4.8278   -3.2412    2.3678 H       1  UNL1        0.0618
     45 H           4.5541   -3.4921   -0.0912 H       1  UNL1        0.0618
     46 H           3.2226   -1.8956   -1.3057 H       1  UNL1        0.0625
@<TRIPOS>BOND
     1     1     2   am
     2     2     3    2
     3     2     4    1
     4     4     5    1
     5     5     6   ar
     6     6     7   ar
     7     7     8   ar
     8     8     9   ar
     9     9    10   ar
    10     4    11    1
    11    11    12    1
    12    12    13    1
    13    13    14   ar
    14    14    15   ar
    15    15    16   ar
    16    16    17   ar
    17    17    18   ar
    18    11    19   am
    19    19    20    2
    20    19    21    1
    21    21    22   ar
    22    22    23   ar
    23    23    24   ar
    24    24    25   ar
    25    25    26   ar
    26    10     5   ar
    27    18    13   ar
    28    26    21   ar
    29     1    27    1
    30     1    28    1
    31     4    29    1
    32     6    30    1
    33     7    31    1
    34     8    32    1
    35     9    33    1
    36    10    34    1
    37    12    35    1
    38    12    36    1
    39    14    37    1
    40    15    38    1
    41    16    39    1
    42    17    40    1
    43    18    41    1
    44    22    42    1
    45    23    43    1
    46    24    44    1
    47    25    45    1
    48    26    46    1
@<TRIPOS>MOLECULE
50575071
 48 49 0 0 0
SMALL
GASTEIGER

@<TRIPOS>ATOM
      1 C           7.4611    0.5230   -0.3765 C.3     1  UNL1        0.0788
      2 O           6.4173    0.2372   -1.2960 O.3     1  UNL1       -0.4951
      3 C           5.1324    0.1649   -0.7966 C.ar    1  UNL1        0.1201
      4 C           4.8318    0.3542    0.5246 C.ar    1  UNL1       -0.0192
      5 C           3.5518    0.2792    1.0049 C.ar    1  UNL1       -0.0462
      6 C           2.4867    0.0019    0.1500 C.ar    1  UNL1        0.0369
      7 C           1.1247   -0.0763    0.6684 C.2     1  UNL1        0.2443
      8 O           0.9304    0.1125    1.9062 O.2     1  UNL1       -0.2702
      9 N           0.0330   -0.3532   -0.1627 N.am    1  UNL1       -0.3082
     10 C          -1.3540   -0.4384    0.3293 C.3     1  UNL1        0.0267
     11 C          -1.7447   -1.8800    0.2008 C.3     1  UNL1       -0.0316
     12 C          -3.1925   -2.1549    0.3011 C.3     1  UNL1       -0.0422
     13 C          -3.6159   -2.9566   -0.9362 C.3     1  UNL1       -0.0624
     14 C          -4.0661   -0.9334    0.3358 C.3     1  UNL1       -0.0501
     15 C          -3.5882    0.0210   -0.7209 C.3     1  UNL1       -0.0481
     16 C          -2.1981    0.5098   -0.4330 C.3     1  UNL1       -0.0202
     17 C          -2.3030    1.8796    0.2018 C.3     1  UNL1       -0.0422
     18 C          -0.9568    2.5588    0.3436 C.3     1  UNL1       -0.0624
     19 C          -2.9760    1.8759    1.5324 C.3     1  UNL1       -0.0624
     20 C           2.8016   -0.1848   -1.1662 C.ar    1  UNL1       -0.0462
     21 C           4.0914   -0.1116   -1.6642 C.ar    1  UNL1       -0.0192
     22 H           7.2014    1.4472    0.1878 H       1  UNL1        0.0660
     23 H           7.5646   -0.3572    0.2780 H       1  UNL1        0.0660
     24 H           8.3692    0.7401   -0.9588 H       1  UNL1        0.0660
     25 H           5.6330    0.5727    1.2252 H       1  UNL1        0.0654
     26 H           3.2937    0.4278    2.0579 H       1  UNL1        0.0626
     27 H           0.1690   -0.5108   -1.1752 H       1  UNL1        0.1493
     28 H          -1.2897   -0.2241    1.4171 H       1  UNL1        0.0501
     29 H          -1.2998   -2.2486   -0.7696 H       1  UNL1        0.0286
     30 H          -1.2164   -2.4516    0.9953 H       1  UNL1        0.0286
     31 H          -3.4762   -2.7880    1.1808 H       1  UNL1        0.0299
     32 H          -3.1282   -3.9446   -0.8387 H       1  UNL1        0.0232
     33 H          -3.0988   -2.4476   -1.7985 H       1  UNL1        0.0232
     34 H          -4.6971   -2.9893   -1.0561 H       1  UNL1        0.0232
     35 H          -5.0958   -1.2751    0.0189 H       1  UNL1        0.0268
     36 H          -4.1887   -0.4871    1.3206 H       1  UNL1        0.0268
     37 H          -3.6752   -0.4679   -1.7122 H       1  UNL1        0.0269
     38 H          -4.2929    0.8782   -0.7412 H       1  UNL1        0.0269
     39 H          -1.7234    0.6878   -1.4441 H       1  UNL1        0.0321
     40 H          -2.9081    2.5582   -0.4617 H       1  UNL1        0.0299
     41 H          -0.5148    2.3769    1.3313 H       1  UNL1        0.0232
     42 H          -1.0983    3.6778    0.2792 H       1  UNL1        0.0232
     43 H          -0.2412    2.2309   -0.4310 H       1  UNL1        0.0232
     44 H          -2.6983    2.8471    2.0397 H       1  UNL1        0.0232
     45 H          -2.6217    1.0874    2.2272 H       1  UNL1        0.0232
     46 H          -4.0863    1.9065    1.4675 H       1  UNL1        0.0232
     47 H           2.0120   -0.4018   -1.8665 H       1  UNL1        0.0626
     48 H           4.2411   -0.2737   -2.7177 H       1  UNL1        0.0654
@<TRIPOS>BOND
     1     1     2    1
     2     2     3    1
     3     3     4   ar
     4     4     5   ar
     5     5     6   ar
     6     6     7    1
     7     7     8    2
     8     7     9   am
     9     9    10    1
    10    10    11    1
    11    11    12    1
    12    12    13    1
    13    12    14    1
    14    14    15    1
    15    15    16    1
    16    16    17    1
    17    17    18    1
    18    17    19    1
    19     6    20   ar
    20    20    21   ar
    21    21     3   ar
    22    16    10    1
    23     1    22    1
    24     1    23    1
    25     1    24    1
    26     4    25    1
    27     5    26    1
    28     9    27    1
    29    10    28    1
    30    11    29    1
    31    11    30    1
    32    12    31    1
    33    13    32    1
    34    13    33    1
    35    13    34    1
    36    14    35    1
    37    14    36    1
    38    15    37    1
    39    15    38    1
    40    16    39    1
    41    17    40    1
    42    18    41    1
    43    18    42    1
    44    18    43    1
    45    19    44    1
    46    19    45    1
    47    19    46    1
    48    20    47    1
    49    21    48    1
@<TRIPOS>MOLECULE
50333134
 36 38 0 0 0
SMALL
GASTEIGER

@<TRIPOS>ATOM
      1 O           1.0704   -2.3699   -0.5871 O.2     1  UNL1       -0.2519
      2 C           0.6587   -1.2268   -0.3044 C.2     1  UNL1        0.3110
      3 N          -0.7681   -0.9856   -0.3981 N.am    1  UNL1       -0.2687
      4 C          -1.2830    0.2914   -0.0887 C.2     1  UNL1        0.0397
      5 C          -2.7321    0.5431   -0.1820 C.ar    1  UNL1        0.0024
      6 C          -3.3000    1.7662    0.1058 C.ar    1  UNL1       -0.0524
      7 C          -4.6901    1.9545    0.0009 C.ar    1  UNL1       -0.0547
      8 C          -5.5181    0.9326   -0.3887 C.ar    1  UNL1        0.0156
      9 C          -4.9766   -0.2979   -0.6816 C.ar    1  UNL1        0.2738
     10 N          -5.8114   -1.3765   -1.0883 N.pl3   1  UNL1        0.0796
     11 O          -5.2988   -2.4792   -1.3476 O.2     1  UNL1        0.0414
     12 O          -7.1654   -1.2477   -1.2062 O.co2   1  UNL1       -0.5760
     13 C          -3.5949   -0.4614   -0.5705 C.ar    1  UNL1        0.0245
     14 C          -0.4399    1.2485    0.2839 C.2     1  UNL1       -0.0445
     15 C           1.0102    1.1210    0.4131 C.3     1  UNL1        0.0414
     16 N           1.5369   -0.2059    0.0906 N.am    1  UNL1       -0.2515
     17 C           2.9347   -0.3883    0.1997 C.ar    1  UNL1        0.0383
     18 C           3.6968    0.7231    0.5961 C.ar    1  UNL1       -0.0368
     19 C           5.0626    0.6733    0.7396 C.ar    1  UNL1       -0.0184
     20 C           5.7491   -0.4915    0.4951 C.ar    1  UNL1        0.1170
     21 O           7.1337   -0.5794    0.6302 O.3     1  UNL1       -0.5068
     22 C           5.0206   -1.5930    0.1054 C.ar    1  UNL1       -0.0184
     23 C           3.6317   -1.5252   -0.0358 C.ar    1  UNL1       -0.0368
     24 H          -1.3450   -1.7790   -0.6929 H       1  UNL1        0.1564
     25 H          -2.6849    2.5881    0.4133 H       1  UNL1        0.0624
     26 H          -5.1157    2.9388    0.2361 H       1  UNL1        0.0620
     27 H          -6.5922    1.0479   -0.4784 H       1  UNL1        0.0685
     28 H          -3.2182   -1.4395   -0.8095 H       1  UNL1        0.0692
     29 H          -0.8374    2.2348    0.5230 H       1  UNL1        0.0606
     30 H           1.3334    1.3358    1.4664 H       1  UNL1        0.0513
     31 H           1.4978    1.8722   -0.2623 H       1  UNL1        0.0513
     32 H           3.2304    1.6798    0.8077 H       1  UNL1        0.0637
     33 H           5.6162    1.5714    1.0527 H       1  UNL1        0.0655
     34 H           7.5038   -1.1439    1.3914 H       1  UNL1        0.2921
     35 H           5.5403   -2.5223   -0.0929 H       1  UNL1        0.0655
     36 H           3.1443   -2.4092   -0.3368 H       1  UNL1        0.0637
@<TRIPOS>UNITY_ATOM_ATTR
10 1
charge 1
12 1
charge -1
@<TRIPOS>BOND
     1     1     2    2
     2     2     3   am
     3     3     4    1
     4     4     5    1
     5     5     6   ar
     6     6     7   ar
     7     7     8   ar
     8     8     9   ar
     9     9    10    1
    10    10    11    2
    11    10    12    1
    12     9    13   ar
    13     4    14    2
    14    14    15    1
    15    15    16    1
    16    16    17    1
    17    17    18   ar
    18    18    19   ar
    19    19    20   ar
    20    20    21    1
    21    20    22   ar
    22    22    23   ar
    23    16     2   am
    24    23    17   ar
    25    13     5   ar
    26     3    24    1
    27     6    25    1
    28     7    26    1
    29     8    27    1
    30    13    28    1
    31    14    29    1
    32    15    30    1
    33    15    31    1
    34    18    32    1
    35    19    33    1
    36    21    34    1
    37    22    35    1
    38    23    36    1
@<TRIPOS>MOLECULE
50333157
 39 41 0 0 0
SMALL
GASTEIGER

@<TRIPOS>ATOM
      1 C          -4.0833   -0.1302    2.3548 C.3     1  UNL1        0.0789
      2 O          -3.1531   -0.1449    1.2919 O.3     1  UNL1       -0.4932
      3 C          -3.6357   -0.3103    0.0102 C.ar    1  UNL1        0.1414
      4 C          -4.9982   -0.4570   -0.2149 C.ar    1  UNL1       -0.0181
      5 C          -5.4721   -0.6222   -1.5036 C.ar    1  UNL1       -0.0582
      6 C          -4.5603   -0.6361   -2.5394 C.ar    1  UNL1       -0.0598
      7 C          -3.1886   -0.4892   -2.3210 C.ar    1  UNL1       -0.0366
      8 C          -2.7378   -0.3259   -1.0303 C.ar    1  UNL1        0.0797
      9 N          -1.3632   -0.1710   -0.7301 N.am    1  UNL1       -0.2480
     10 C          -0.7572    1.1332   -0.6885 C.3     1  UNL1        0.0415
     11 C           0.6749    1.1410   -0.3644 C.2     1  UNL1       -0.0445
     12 C           1.4379    0.0908   -0.1143 C.2     1  UNL1        0.0395
     13 C           2.8776    0.2251    0.2023 C.ar    1  UNL1       -0.0036
     14 C           3.4806    1.4621    0.2480 C.ar    1  UNL1       -0.0464
     15 C           4.8497    1.5672    0.5507 C.ar    1  UNL1        0.0162
     16 C           5.6148    0.4515    0.8062 C.ar    1  UNL1        0.2732
     17 N           6.9982    0.5428    1.1131 N.pl3   1  UNL1        0.0796
     18 O           7.7083   -0.4479    1.3469 O.2     1  UNL1        0.0414
     19 O           7.5783    1.7844    1.1534 O.co2   1  UNL1       -0.5760
     20 C           5.0089   -0.7759    0.7591 C.ar    1  UNL1        0.0162
     21 C           3.6533   -0.8877    0.4599 C.ar    1  UNL1       -0.0464
     22 N           0.8483   -1.2041   -0.1528 N.am    1  UNL1       -0.2687
     23 C          -0.5393   -1.2953   -0.4607 C.2     1  UNL1        0.3111
     24 O          -1.0720   -2.4489   -0.4967 O.2     1  UNL1       -0.2519
     25 H          -4.5264   -1.1464    2.4210 H       1  UNL1        0.0660
     26 H          -4.8800    0.6251    2.2251 H       1  UNL1        0.0660
     27 H          -3.5850    0.1193    3.3260 H       1  UNL1        0.0660
     28 H          -5.7092   -0.4458    0.5966 H       1  UNL1        0.0655
     29 H          -6.5277   -0.7400   -1.7222 H       1  UNL1        0.0619
     30 H          -4.9015   -0.7636   -3.5581 H       1  UNL1        0.0618
     31 H          -2.4730   -0.5003   -3.1375 H       1  UNL1        0.0637
     32 H          -0.9735    1.6529   -1.6672 H       1  UNL1        0.0513
     33 H          -1.3449    1.7289    0.0658 H       1  UNL1        0.0513
     34 H           1.1452    2.1431   -0.3314 H       1  UNL1        0.0606
     35 H           2.9911    2.3860    0.0692 H       1  UNL1        0.0626
     36 H           5.3467    2.5270    0.5929 H       1  UNL1        0.0685
     37 H           5.5820   -1.6482    0.9531 H       1  UNL1        0.0685
     38 H           3.2805   -1.8984    0.4497 H       1  UNL1        0.0626
     39 H           1.4059   -2.0910    0.0388 H       1  UNL1        0.1564
@<TRIPOS>UNITY_ATOM_ATTR
17 1
charge 1
19 1
charge -1
@<TRIPOS>BOND
     1     1     2    1
     2     2     3    1
     3     3     4   ar
     4     4     5   ar
     5     5     6   ar
     6     6     7   ar
     7     7     8   ar
     8     8     9    1
     9     9    10    1
    10    10    11    1
    11    11    12    2
    12    12    13    1
    13    13    14   ar
    14    14    15   ar
    15    15    16   ar
    16    16    17    1
    17    17    18    2
    18    17    19    1
    19    16    20   ar
    20    20    21   ar
    21    12    22    1
    22    22    23   am
    23    23    24    2
    24     8     3   ar
    25    23     9   am
    26    21    13   ar
    27     1    25    1
    28     1    26    1
    29     1    27    1
    30     4    28    1
    31     5    29    1
    32     6    30    1
    33     7    31    1
    34    10    32    1
    35    10    33    1
    36    11    34    1
    37    14    35    1
    38    15    36    1
    39    20    37    1
    40    21    38    1
    41    22    39    1
@<TRIPOS>MOLECULE
50333159
 39 41 0 0 0
SMALL
GASTEIGER

@<TRIPOS>ATOM
      1 N          -1.8678    0.7940    2.2275 N.am    1  UNL1       -0.3253
      2 C          -3.2019    1.0640    1.9249 C.2     1  UNL1        0.2433
      3 O          -3.9953    1.3069    2.9052 O.2     1  UNL1       -0.2704
      4 C          -3.7291    1.0866    0.5886 C.ar    1  UNL1        0.0579
      5 C          -5.0769    1.4672    0.4184 C.ar    1  UNL1       -0.0478
      6 C          -5.6270    1.5111   -0.8348 C.ar    1  UNL1       -0.0609
      7 C          -4.8567    1.1811   -1.9308 C.ar    1  UNL1       -0.0600
      8 C          -3.5213    0.8035   -1.7616 C.ar    1  UNL1       -0.0395
      9 C          -2.9647    0.7592   -0.4882 C.ar    1  UNL1        0.0502
     10 N          -1.5919    0.3527   -0.3967 N.am    1  UNL1       -0.2507
     11 C          -1.2270   -1.0294   -0.3205 C.3     1  UNL1        0.0414
     12 C           0.2140   -1.2597   -0.2065 C.2     1  UNL1       -0.0445
     13 C           1.1766   -0.3598   -0.2140 C.2     1  UNL1        0.0395
     14 C           2.6077   -0.7127   -0.0934 C.ar    1  UNL1       -0.0036
     15 C           3.5853    0.2516   -0.1086 C.ar    1  UNL1       -0.0464
     16 C           4.9417   -0.0741    0.0059 C.ar    1  UNL1        0.0162
     17 C           5.3652   -1.3747    0.1392 C.ar    1  UNL1        0.2732
     18 N           6.7471   -1.6849    0.2541 N.pl3   1  UNL1        0.0796
     19 O           7.0907   -2.8744    0.3732 O.2     1  UNL1        0.0414
     20 O           7.7334   -0.7340    0.2406 O.co2   1  UNL1       -0.5760
     21 C           4.3907   -2.3401    0.1547 C.ar    1  UNL1        0.0162
     22 C           3.0258   -2.0138    0.0397 C.ar    1  UNL1       -0.0464
     23 N           0.8085    1.0087   -0.3223 N.am    1  UNL1       -0.2687
     24 C          -0.5678    1.3347   -0.4124 C.2     1  UNL1        0.3110
     25 O          -0.9363    2.5580   -0.5133 O.2     1  UNL1       -0.2519
     26 H          -1.4865   -0.1560    2.3803 H       1  UNL1        0.1453
     27 H          -1.1989    1.5987    2.3242 H       1  UNL1        0.1453
     28 H          -5.6756    1.7246    1.2793 H       1  UNL1        0.0626
     29 H          -6.6725    1.8051   -0.9800 H       1  UNL1        0.0618
     30 H          -5.2573    1.2050   -2.9324 H       1  UNL1        0.0618
     31 H          -2.8954    0.5406   -2.5967 H       1  UNL1        0.0636
     32 H          -1.5404   -1.5302   -1.2842 H       1  UNL1        0.0513
     33 H          -1.8177   -1.5177    0.4899 H       1  UNL1        0.0513
     34 H           0.5217   -2.3234   -0.1017 H       1  UNL1        0.0606
     35 H           3.3381    1.2965   -0.2102 H       1  UNL1        0.0626
     36 H           5.6872    0.7190   -0.0104 H       1  UNL1        0.0685
     37 H           4.6543   -3.3838    0.2568 H       1  UNL1        0.0685
     38 H           2.2986   -2.8011    0.0568 H       1  UNL1        0.0626
     39 H           1.5214    1.8010   -0.3388 H       1  UNL1        0.1564
@<TRIPOS>UNITY_ATOM_ATTR
18 1
charge 1
20 1
charge -1
@<TRIPOS>BOND
     1     1     2   am
     2     2     3    2
     3     2     4    1
     4     4     5   ar
     5     5     6   ar
     6     6     7   ar
     7     7     8   ar
     8     8     9   ar
     9     9    10    1
    10    10    11    1
    11    11    12    1
    12    12    13    2
    13    13    14    1
    14    14    15   ar
    15    15    16   ar
    16    16    17   ar
    17    17    18    1
    18    18    19    2
    19    18    20    1
    20    17    21   ar
    21    21    22   ar
    22    13    23    1
    23    23    24   am
    24    24    25    2
    25     9     4   ar
    26    24    10   am
    27    22    14   ar
    28     1    26    1
    29     1    27    1
    30     5    28    1
    31     6    29    1
    32     7    30    1
    33     8    31    1
    34    11    32    1
    35    11    33    1
    36    12    34    1
    37    15    35    1
    38    16    36    1
    39    21    37    1
    40    22    38    1
    41    23    39    1
@<TRIPOS>MOLECULE
50333156
 36 38 0 0 0
SMALL
GASTEIGER

@<TRIPOS>ATOM
      1 O           1.3883   -2.4780   -0.5666 O.2     1  UNL1       -0.2519
      2 C           0.8770   -1.3255   -0.3191 C.2     1  UNL1        0.3110
      3 N          -0.5642   -1.2640   -0.2596 N.am    1  UNL1       -0.2687
      4 C          -1.2282   -0.0487    0.0054 C.2     1  UNL1        0.0395
      5 C          -2.6796    0.0230    0.0672 C.ar    1  UNL1       -0.0036
      6 C          -3.3787    1.1688    0.3195 C.ar    1  UNL1       -0.0464
      7 C          -4.7563    1.2552    0.3818 C.ar    1  UNL1        0.0162
      8 C          -5.5077    0.1280    0.1807 C.ar    1  UNL1        0.2732
      9 N          -6.9405    0.1520    0.2324 N.pl3   1  UNL1        0.0796
     10 O          -7.5898    1.1829    0.4600 O.2     1  UNL1        0.0414
     11 O          -7.6232   -1.0140    0.0212 O.co2   1  UNL1       -0.5760
     12 C          -4.8470   -1.0518   -0.0771 C.ar    1  UNL1        0.0162
     13 C          -3.4664   -1.1181   -0.1355 C.ar    1  UNL1       -0.0464
     14 C          -0.4542    0.9972    0.1895 C.2     1  UNL1       -0.0445
     15 C           1.0031    1.0728    0.1570 C.3     1  UNL1        0.0414
     16 N           1.6457   -0.1722   -0.1134 N.am    1  UNL1       -0.2515
     17 C           3.0789   -0.2163   -0.1692 C.ar    1  UNL1        0.0383
     18 C           3.7681    0.9842    0.0489 C.ar    1  UNL1       -0.0368
     19 C           5.1422    1.0779    0.0227 C.ar    1  UNL1       -0.0184
     20 C           5.8888   -0.0531   -0.2285 C.ar    1  UNL1        0.1170
     21 O           7.2838    0.0413   -0.2553 O.3     1  UNL1       -0.5068
     22 C           5.2246   -1.2253   -0.4417 C.ar    1  UNL1       -0.0184
     23 C           3.8208   -1.3134   -0.4134 C.ar    1  UNL1       -0.0368
     24 H          -1.0781   -2.1388   -0.4180 H       1  UNL1        0.1564
     25 H          -2.8580    2.1089    0.4907 H       1  UNL1        0.0626
     26 H          -5.2152    2.2065    0.5873 H       1  UNL1        0.0685
     27 H          -5.4260   -1.9646   -0.2409 H       1  UNL1        0.0685
     28 H          -3.0024   -2.0512   -0.3375 H       1  UNL1        0.0626
     29 H          -1.0243    1.9390    0.3967 H       1  UNL1        0.0606
     30 H           1.3729    1.4604    1.1603 H       1  UNL1        0.0513
     31 H           1.2757    1.8808   -0.5553 H       1  UNL1        0.0513
     32 H           3.2291    1.8986    0.2499 H       1  UNL1        0.0637
     33 H           5.6647    2.0099    0.1924 H       1  UNL1        0.0655
     34 H           7.7585    0.2852    0.6080 H       1  UNL1        0.2921
     35 H           5.8081   -2.1355   -0.6433 H       1  UNL1        0.0655
     36 H           3.4094   -2.3020   -0.5981 H       1  UNL1        0.0637
@<TRIPOS>UNITY_ATOM_ATTR
9 1
charge 1
11 1
charge -1
@<TRIPOS>BOND
     1     1     2    2
     2     2     3   am
     3     3     4    1
     4     4     5    1
     5     5     6   ar
     6     6     7   ar
     7     7     8   ar
     8     8     9    1
     9     9    10    2
    10     9    11    1
    11     8    12   ar
    12    12    13   ar
    13     4    14    2
    14    14    15    1
    15    15    16    1
    16    16    17    1
    17    17    18   ar
    18    18    19   ar
    19    19    20   ar
    20    20    21    1
    21    20    22   ar
    22    22    23   ar
    23    16     2   am
    24    23    17   ar
    25    13     5   ar
    26     3    24    1
    27     6    25    1
    28     7    26    1
    29    12    27    1
    30    13    28    1
    31    14    29    1
    32    15    30    1
    33    15    31    1
    34    18    32    1
    35    19    33    1
    36    21    34    1
    37    22    35    1
    38    23    36    1
@<TRIPOS>MOLECULE
51345607
 32 35 0 0 0
SMALL
GASTEIGER

@<TRIPOS>ATOM
      1 O          -2.5880    2.6249    0.4462 O.2     2  UNK2       -0.2738
      2 C          -2.7424    1.3844    0.4598 C.2     2  UNK2        0.2343
      3 N          -4.0686    0.8649    0.4626 N.am    1  GLY1       -0.3052
      4 CA         -4.2978   -0.5129    0.0546 C.3     1  GLY1        0.0884
      5 C          -3.2025   -0.8530   -0.9078 C.2     1  GLY1        0.2337
      6 O          -3.4512   -1.3806   -2.0309 O.2     1  GLY1       -0.2739
      7 N          -1.8467   -0.5739   -0.5459 N.am    2  UNK2       -0.2826
      8 C          -0.8076   -1.3033   -1.2355 C.3     2  UNK2        0.0559
      9 C           0.5365   -0.9073   -0.7593 C.ar    2  UNK2        0.0378
     10 N           1.7392   -1.5059   -0.8801 N.ar    2  UNK2       -0.3564
     11 C           2.6983   -0.7747   -0.2829 C.ar    2  UNK2        0.0470
     12 C           4.0696   -0.9325   -0.1196 C.ar    2  UNK2       -0.0378
     13 C           4.7995    0.0169    0.5604 C.ar    2  UNK2       -0.0598
     14 C           4.2214    1.1457    1.1012 C.ar    2  UNK2       -0.0611
     15 C           2.8606    1.2889    0.9314 C.ar    2  UNK2       -0.0523
     16 C           2.0929    0.3454    0.2478 C.ar    2  UNK2        0.0032
     17 C           0.7509    0.2468   -0.0573 C.ar    2  UNK2       -0.0153
     18 C          -0.3466    1.1881    0.2798 C.3     2  UNK2        0.0019
     19 C          -1.6226    0.4084    0.4733 C.3     2  UNK2        0.1066
     20 H          -4.8650    1.4688    0.7547 H       1  GLY1        0.1492
     21 HA1        -4.2163   -1.1468    0.9768 H       1  GLY1        0.0558
     22 HA2        -5.2734   -0.6529   -0.4436 H       1  GLY1        0.0558
     23 H          -0.8895   -2.4069   -1.0558 H       2  UNK2        0.0529
     24 H          -0.8788   -1.1604   -2.3486 H       2  UNK2        0.0529
     25 H           1.9273   -2.4093   -1.3637 H       2  UNK2        0.1656
     26 H           4.5300   -1.8128   -0.5395 H       2  UNK2        0.0638
     27 H           5.8714   -0.1455    0.6657 H       2  UNK2        0.0618
     28 H           4.8407    1.8511    1.6207 H       2  UNK2        0.0618
     29 H           2.3872    2.1495    1.3376 H       2  UNK2        0.0624
     30 H          -0.1254    1.6780    1.2608 H       2  UNK2        0.0337
     31 H          -0.4929    1.9396   -0.5203 H       2  UNK2        0.0337
     32 H          -1.6103   -0.1225    1.4586 H       2  UNK2        0.0600
@<TRIPOS>BOND
     1     1     2    2
     2     2     3   am
     3     3     4    1
     4     4     5    1
     5     5     6    2
     6     5     7   am
     7     7     8    1
     8     8     9    1
     9     9    10   ar
    10    10    11   ar
    11    11    12   ar
    12    12    13   ar
    13    13    14   ar
    14    14    15   ar
    15    15    16   ar
    16    16    17   ar
    17    17    18    1
    18    18    19    1
    19    19     2    1
    20    19     7    1
    21    17     9   ar
    22    16    11   ar
    23     3    20    1
    24     4    21    1
    25     4    22    1
    26     8    23    1
    27     8    24    1
    28    10    25    1
    29    12    26    1
    30    13    27    1
    31    14    28    1
    32    15    29    1
    33    18    30    1
    34    18    31    1
    35    19    32    1
@<TRIPOS>MOLECULE
171343780
 31 33 0 0 0
SMALL
GASTEIGER

@<TRIPOS>ATOM
      1 C          -6.1656   -0.7108   -0.6951 C.3     1  UNL1       -0.0438
      2 C          -5.7664    0.3775    0.2591 C.3     1  UNL1        0.0600
      3 N          -4.4362    0.0991    0.7733 N.ar    1  UNL1       -0.1631
      4 N          -4.1936   -0.5995    1.8506 N.ar    1  UNL1       -0.0458
      5 N          -2.8917   -0.6786    2.0602 N.ar    1  UNL1       -0.1071
      6 C          -2.2570    0.0033    1.0686 C.ar    1  UNL1        0.2163
      7 C          -0.8493    0.1534    0.9375 C.ar    1  UNL1        0.1230
      8 S           0.1949   -0.4195   -0.4593 S.2     1  UNL1       -0.0601
      9 C           1.7027    0.1487    0.1738 C.ar    1  UNL1        0.1128
     10 C           3.0380    0.0315   -0.4436 C.ar    1  UNL1        0.0075
     11 C           4.1509    0.5336    0.1810 C.ar    1  UNL1       -0.0486
     12 C           5.4212    0.4363   -0.3796 C.ar    1  UNL1       -0.0195
     13 C           5.5728   -0.1867   -1.6078 C.ar    1  UNL1        0.1169
     14 O           6.8348   -0.2897   -2.1767 O.3     1  UNL1       -0.5068
     15 C           4.4509   -0.6922   -2.2360 C.ar    1  UNL1       -0.0195
     16 C           3.1936   -0.5857   -1.6619 C.ar    1  UNL1       -0.0486
     17 N           1.3562    0.6938    1.3117 N.ar    1  UNL1       -0.2047
     18 C           0.1421    0.7229    1.7259 C.ar    1  UNL1        0.2313
     19 O          -0.2782    1.3094    2.9640 O.3     1  UNL1       -0.4915
     20 N          -3.2717    0.4720    0.2872 N.ar    1  UNL1       -0.1297
     21 H          -6.6719   -0.3079   -1.6079 H       1  UNL1        0.0248
     22 H          -5.2407   -1.2198   -1.0509 H       1  UNL1        0.0248
     23 H          -6.7887   -1.4382   -0.1505 H       1  UNL1        0.0248
     24 H          -6.4904    0.4968    1.0871 H       1  UNL1        0.0524
     25 H          -5.7522    1.3520   -0.2827 H       1  UNL1        0.0524
     26 H           4.0272    1.0195    1.1404 H       1  UNL1        0.0625
     27 H           6.2964    0.8317    0.1125 H       1  UNL1        0.0654
     28 H           7.6870   -0.3017   -1.6537 H       1  UNL1        0.2921
     29 H           4.5541   -1.1805   -3.1940 H       1  UNL1        0.0654
     30 H           2.2967   -0.9741   -2.1342 H       1  UNL1        0.0625
     31 H           0.1341    0.9041    3.8013 H       1  UNL1        0.2938
@<TRIPOS>BOND
     1     1     2    1
     2     2     3    1
     3     3     4   ar
     4     4     5   ar
     5     5     6   ar
     6     6     7    1
     7     7     8   ar
     8     8     9   ar
     9     9    10    1
    10    10    11   ar
    11    11    12   ar
    12    12    13   ar
    13    13    14    1
    14    13    15   ar
    15    15    16   ar
    16     9    17   ar
    17    17    18   ar
    18    18    19    1
    19     6    20   ar
    20    20     3   ar
    21    18     7   ar
    22    16    10   ar
    23     1    21    1
    24     1    22    1
    25     1    23    1
    26     2    24    1
    27     2    25    1
    28    11    26    1
    29    12    27    1
    30    14    28    1
    31    15    29    1
    32    16    30    1
    33    19    31    1
@<TRIPOS>MOLECULE
1833
 28 29 0 0 0
SMALL
GASTEIGER

@<TRIPOS>ATOM
      1 C           3.8578    1.9810   -1.0297 C.3     1  UNL1        0.0788
      2 O           2.5283    1.7761   -0.6335 O.3     1  UNL1       -0.4951
      3 C           1.9271    0.5775   -0.3516 C.ar    1  UNL1        0.1208
      4 C           2.5908   -0.6290   -0.4334 C.ar    1  UNL1       -0.0180
      5 C           1.9712   -1.8381   -0.1452 C.ar    1  UNL1       -0.0343
      6 C           0.6334   -1.8439    0.2410 C.ar    1  UNL1        0.0470
      7 N          -0.2435   -2.8211    0.5895 N.ar    1  UNL1       -0.3604
      8 C          -1.4261   -2.2450    0.8829 C.ar    1  UNL1        0.0059
      9 C          -1.3383   -0.8721    0.7284 C.ar    1  UNL1       -0.0211
     10 C          -2.3511    0.1873    0.9132 C.3     1  UNL1       -0.0133
     11 C          -2.9284    0.6471   -0.4083 C.3     1  UNL1       -0.0029
     12 N          -3.9054    1.6831   -0.1301 N.3     1  UNL1       -0.3297
     13 C          -0.0291   -0.6297    0.3215 C.ar    1  UNL1        0.0063
     14 C           0.6059    0.5662    0.0300 C.ar    1  UNL1       -0.0105
     15 H           4.5762    1.2473   -0.6024 H       1  UNL1        0.0660
     16 H           4.1896    3.0091   -0.7030 H       1  UNL1        0.0660
     17 H           3.9080    1.9988   -2.1326 H       1  UNL1        0.0660
     18 H           3.6278   -0.5686   -0.7387 H       1  UNL1        0.0655
     19 H           2.5075   -2.7527   -0.2173 H       1  UNL1        0.0639
     20 H           0.0228   -3.8454    0.6065 H       1  UNL1        0.1653
     21 H          -2.3281   -2.7494    1.1946 H       1  UNL1        0.0810
     22 H          -3.1185   -0.0689    1.6632 H       1  UNL1        0.0326
     23 H          -1.7965    1.0736    1.3284 H       1  UNL1        0.0326
     24 H          -3.3910   -0.1680   -0.9776 H       1  UNL1        0.0425
     25 H          -2.1151    1.1249   -1.0186 H       1  UNL1        0.0425
     26 H          -4.6260    1.2287    0.4884 H       1  UNL1        0.1182
     27 H          -3.4194    2.4394    0.4348 H       1  UNL1        0.1182
     28 H           0.0699    1.4917    0.1006 H       1  UNL1        0.0661
@<TRIPOS>BOND
     1     1     2    1
     2     2     3    1
     3     3     4   ar
     4     4     5   ar
     5     5     6   ar
     6     6     7   ar
     7     7     8   ar
     8     8     9   ar
     9     9    10    1
    10    10    11    1
    11    11    12    1
    12     9    13   ar
    13    13    14   ar
    14    14     3   ar
    15    13     6   ar
    16     1    15    1
    17     1    16    1
    18     1    17    1
    19     4    18    1
    20     5    19    1
    21     7    20    1
    22     8    21    1
    23    10    22    1
    24    10    23    1
    25    11    24    1
    26    11    25    1
    27    12    26    1
    28    12    27    1
    29    14    28    1
@<TRIPOS>MOLECULE
51135391
 44 48 0 0 0
SMALL
GASTEIGER

@<TRIPOS>ATOM
      1 C          -4.3267   -1.5980   -2.3320 C.ar    1  UNL1       -0.0609
      2 C          -2.9755   -1.5576   -2.0261 C.ar    1  UNL1       -0.0567
      3 C          -2.4782   -0.8199   -0.9825 C.ar    1  UNL1       -0.0254
      4 C          -3.3979   -0.0946   -0.2208 C.ar    1  UNL1       -0.0091
      5 C          -2.9467    0.6576    0.8330 C.ar    1  UNL1       -0.0254
      6 C          -3.8210    1.3844    1.6044 C.ar    1  UNL1       -0.0567
      7 C          -5.1848    1.3711    1.3309 C.ar    1  UNL1       -0.0609
      8 C          -5.6309    0.6111    0.2685 C.ar    1  UNL1       -0.0540
      9 C          -4.7484   -0.1245   -0.5127 C.ar    1  UNL1       -0.0173
     10 C          -5.2321   -0.8772   -1.5735 C.ar    1  UNL1       -0.0540
     11 C          -1.5075    0.6816    1.1473 C.3     1  UNL1        0.0250
     12 N          -0.7694    0.5068   -0.0834 N.3     1  UNL1       -0.2936
     13 C           0.6295    0.8093    0.0562 C.3     1  UNL1        0.0036
     14 C           1.3585   -0.1819    0.9183 C.3     1  UNL1       -0.0129
     15 C           2.8032    0.1082    1.0700 C.ar    1  UNL1       -0.0212
     16 C           3.4242    0.6560    2.1989 C.ar    1  UNL1        0.0059
     17 N           4.7428    0.7667    1.9595 N.ar    1  UNL1       -0.3604
     18 C           5.0317    0.3150    0.7143 C.ar    1  UNL1        0.0467
     19 C           6.2073    0.2118   -0.0026 C.ar    1  UNL1       -0.0378
     20 C           6.1551   -0.3068   -1.2791 C.ar    1  UNL1       -0.0598
     21 C           4.9497   -0.7165   -1.8336 C.ar    1  UNL1       -0.0611
     22 C           3.7730   -0.6195   -1.1319 C.ar    1  UNL1       -0.0523
     23 C           3.8289   -0.0960    0.1558 C.ar    1  UNL1        0.0029
     24 C          -1.0067   -0.7920   -0.6735 C.3     1  UNL1        0.0250
     25 H          -4.6947   -2.1866   -3.1585 H       1  UNL1        0.0618
     26 H          -2.2746   -2.1383   -2.6438 H       1  UNL1        0.0621
     27 H          -3.4851    1.9955    2.4553 H       1  UNL1        0.0621
     28 H          -5.8727    1.9496    1.9460 H       1  UNL1        0.0618
     29 H          -6.6892    0.5721    0.0205 H       1  UNL1        0.0624
     30 H          -6.2934   -0.8718   -1.7646 H       1  UNL1        0.0624
     31 H          -1.1647    1.6396    1.5947 H       1  UNL1        0.0476
     32 H          -1.2787   -0.1825    1.8231 H       1  UNL1        0.0476
     33 H           0.6919    1.8092    0.5315 H       1  UNL1        0.0430
     34 H           1.0666    0.9051   -0.9531 H       1  UNL1        0.0430
     35 H           1.2538   -1.1786    0.4130 H       1  UNL1        0.0326
     36 H           0.9128   -0.2892    1.9120 H       1  UNL1        0.0326
     37 H           2.8724    0.9314    3.1040 H       1  UNL1        0.0810
     38 H           5.4549    1.1439    2.6262 H       1  UNL1        0.1653
     39 H           7.1581    0.5234    0.4040 H       1  UNL1        0.0638
     40 H           7.0340   -0.4178   -1.8996 H       1  UNL1        0.0618
     41 H           4.8874   -1.1313   -2.8462 H       1  UNL1        0.0618
     42 H           2.8170   -0.9241   -1.5184 H       1  UNL1        0.0624
     43 H          -0.4768   -0.8194   -1.6452 H       1  UNL1        0.0476
     44 H          -0.7969   -1.6252   -0.0043 H       1  UNL1        0.0476
@<TRIPOS>BOND
     1     1     2   ar
     2     2     3   ar
     3     3     4   ar
     4     4     5   ar
     5     5     6   ar
     6     6     7   ar
     7     7     8   ar
     8     8     9   ar
     9     9    10   ar
    10     5    11    1
    11    11    12    1
    12    12    13    1
    13    13    14    1
    14    14    15    1
    15    15    16   ar
    16    16    17   ar
    17    17    18   ar
    18    18    19   ar
    19    19    20   ar
    20    20    21   ar
    21    21    22   ar
    22    22    23   ar
    23    12    24    1
    24    10     1   ar
    25    23    15   ar
    26    24     3    1
    27     9     4   ar
    28    23    18   ar
    29     1    25    1
    30     2    26    1
    31     6    27    1
    32     7    28    1
    33     8    29    1
    34    10    30    1
    35    11    31    1
    36    11    32    1
    37    13    33    1
    38    13    34    1
    39    14    35    1
    40    14    36    1
    41    16    37    1
    42    17    38    1
    43    19    39    1
    44    20    40    1
    45    21    41    1
    46    22    42    1
    47    24    43    1
    48    24    44    1
@<TRIPOS>MOLECULE
137241031
 34 36 0 0 0
SMALL
GASTEIGER

@<TRIPOS>ATOM
      1 O          -2.6315   -2.4719    0.1300 O.2     1  UNL1       -0.2692
      2 C          -2.0598   -1.3314    0.0194 C.2     1  UNL1        0.2586
      3 C          -0.6306   -1.3420    0.0878 C.ar    1  UNL1        0.1372
      4 S           0.4780    0.0884   -0.0354 S.2     1  UNL1       -0.0588
      5 C           2.0063   -0.9932    0.1679 C.ar    1  UNL1        0.1129
      6 C           3.3378   -0.2697    0.1416 C.ar    1  UNL1        0.0100
      7 C           3.4257    1.0747   -0.0185 C.ar    1  UNL1       -0.0519
      8 C           4.6752    1.6762   -0.0338 C.ar    1  UNL1       -0.0584
      9 C           5.8017    0.9052    0.1127 C.ar    1  UNL1       -0.0264
     10 C           5.7210   -0.4727    0.2771 C.ar    1  UNL1        0.1240
     11 F           6.8533   -1.2003    0.4186 F       1  UNL1       -0.2055
     12 C           4.4711   -1.0399    0.2883 C.ar    1  UNL1       -0.0168
     13 N           1.5269   -2.0183    0.2708 N.ar    1  UNL1       -0.2047
     14 C           0.2544   -2.3838    0.2562 C.ar    1  UNL1        0.2327
     15 O          -0.2450   -3.7057    0.3945 O.3     1  UNL1       -0.4915
     16 N          -2.8584   -0.1870   -0.1561 N.am    1  UNL1       -0.2926
     17 C          -2.2421    1.0985   -0.2813 C.3     1  UNL1        0.0385
     18 C          -3.2053    2.2464   -0.4389 C.3     1  UNL1        0.0635
     19 O          -4.5054    1.8965   -0.6711 O.3     1  UNL1       -0.3767
     20 C          -4.9217    0.9412    0.2688 C.3     1  UNL1        0.0635
     21 C          -4.3170   -0.3629   -0.2051 C.3     1  UNL1        0.0385
     22 H           2.5519    1.6635   -0.1310 H       1  UNL1        0.0624
     23 H           4.7809    2.7581   -0.1610 H       1  UNL1        0.0619
     24 H           6.7972    1.3320    0.1069 H       1  UNL1        0.0646
     25 H           4.3422   -2.1000    0.4117 H       1  UNL1        0.0653
     26 H          -0.3650   -4.2638   -0.4436 H       1  UNL1        0.2938
     27 H          -1.6308    1.2571    0.6319 H       1  UNL1        0.0487
     28 H          -1.5497    1.0370   -1.1596 H       1  UNL1        0.0487
     29 H          -2.8517    2.8724   -1.3046 H       1  UNL1        0.0575
     30 H          -3.1677    2.8928    0.4551 H       1  UNL1        0.0575
     31 H          -6.0214    0.9089    0.2080 H       1  UNL1        0.0575
     32 H          -4.5530    1.1727    1.2831 H       1  UNL1        0.0575
     33 H          -4.6478   -1.2136    0.3946 H       1  UNL1        0.0487
     34 H          -4.6198   -0.4655   -1.2859 H       1  UNL1        0.0487
@<TRIPOS>BOND
     1     1     2    2
     2     2     3    1
     3     3     4   ar
     4     4     5   ar
     5     5     6    1
     6     6     7   ar
     7     7     8   ar
     8     8     9   ar
     9     9    10   ar
    10    10    11    1
    11    10    12   ar
    12     5    13   ar
    13    13    14   ar
    14    14    15    1
    15     2    16   am
    16    16    17    1
    17    17    18    1
    18    18    19    1
    19    19    20    1
    20    20    21    1
    21    14     3   ar
    22    21    16    1
    23    12     6   ar
    24     7    22    1
    25     8    23    1
    26     9    24    1
    27    12    25    1
    28    15    26    1
    29    17    27    1
    30    17    28    1
    31    18    29    1
    32    18    30    1
    33    20    31    1
    34    20    32    1
    35    21    33    1
    36    21    34    1
@<TRIPOS>MOLECULE
164682
 24 25 0 0 0
SMALL
GASTEIGER

@<TRIPOS>ATOM
      1 N          -3.2359   -0.0440    0.7748 N.3     1  UNL1       -0.3297
      2 C          -2.8348    0.8270   -0.3066 C.3     1  UNL1       -0.0029
      3 C          -1.3738    1.2597   -0.1619 C.3     1  UNL1       -0.0133
      4 C          -0.4859    0.0526   -0.1739 C.ar    1  UNL1       -0.0211
      5 C          -0.8634   -1.2474   -0.2983 C.ar    1  UNL1        0.0059
      6 N           0.2553   -1.9828   -0.2576 N.ar    1  UNL1       -0.3604
      7 C           1.3311   -1.1932   -0.1115 C.ar    1  UNL1        0.0469
      8 C           2.6955   -1.4173   -0.0138 C.ar    1  UNL1       -0.0351
      9 C           3.5913   -0.3823    0.1348 C.ar    1  UNL1       -0.0245
     10 C           3.1388    0.9066    0.1892 C.ar    1  UNL1        0.1241
     11 F           4.0070    1.9648    0.3371 F       1  UNL1       -0.2055
     12 C           1.7878    1.1717    0.0955 C.ar    1  UNL1       -0.0170
     13 C           0.9026    0.1274   -0.0528 C.ar    1  UNL1        0.0056
     14 H          -3.5399    0.4877    1.6162 H       1  UNL1        0.1182
     15 H          -3.9746   -0.7281    0.4615 H       1  UNL1        0.1182
     16 H          -3.5055    1.7069   -0.2807 H       1  UNL1        0.0425
     17 H          -2.9908    0.2985   -1.2629 H       1  UNL1        0.0425
     18 H          -1.1599    1.9328   -1.0174 H       1  UNL1        0.0326
     19 H          -1.2463    1.7910    0.7835 H       1  UNL1        0.0326
     20 H          -1.8801   -1.5987   -0.4082 H       1  UNL1        0.0810
     21 H           0.3195   -3.0359   -0.3275 H       1  UNL1        0.1653
     22 H           3.0472   -2.4483   -0.0582 H       1  UNL1        0.0639
     23 H           4.6421   -0.6155    0.2057 H       1  UNL1        0.0647
     24 H           1.3726    2.1668    0.1320 H       1  UNL1        0.0653
@<TRIPOS>BOND
     1     1     2    1
     2     2     3    1
     3     3     4    1
     4     4     5   ar
     5     5     6   ar
     6     6     7   ar
     7     7     8   ar
     8     8     9   ar
     9     9    10   ar
    10    10    11    1
    11    10    12   ar
    12    12    13   ar
    13    13     4   ar
    14    13     7   ar
    15     1    14    1
    16     1    15    1
    17     2    16    1
    18     2    17    1
    19     3    18    1
    20     3    19    1
    21     5    20    1
    22     6    21    1
    23     8    22    1
    24     9    23    1
    25    12    24    1
@<TRIPOS>MOLECULE
51028011
 41 42 0 0 0
SMALL
GASTEIGER

@<TRIPOS>ATOM
      1 C          -2.7287   -4.1093   -0.9737 C.3     1  UNL1       -0.0397
      2 C          -2.5723   -2.6988   -0.5019 C.ar    1  UNL1       -0.0487
      3 C          -3.4042   -2.1630    0.4777 C.ar    1  UNL1       -0.0585
      4 C          -3.2040   -0.8512    0.8672 C.ar    1  UNL1       -0.0563
      5 C          -2.2225   -0.0525    0.3324 C.ar    1  UNL1       -0.0236
      6 C          -2.0214    1.3368    0.7548 C.3     1  UNL1       -0.0198
      7 C          -2.8343    2.3102   -0.0730 C.3     1  UNL1       -0.0586
      8 C          -2.4169    1.5021    2.2249 C.3     1  UNL1       -0.0586
      9 C          -1.4101   -0.6147   -0.6411 C.ar    1  UNL1        0.0371
     10 N          -0.3732    0.1662   -1.2333 N.am    1  UNL1       -0.2850
     11 C           0.9324    0.1948   -0.6781 C.2     1  UNL1        0.2215
     12 O           1.1550   -0.4883    0.3540 O.2     1  UNL1       -0.2751
     13 C           1.9914    1.0275   -1.3309 C.3     1  UNL1        0.0494
     14 C           3.2638    0.9112   -0.5934 C.ar    1  UNL1       -0.0376
     15 C           3.5639    1.7797    0.4376 C.ar    1  UNL1       -0.0581
     16 C           4.7487    1.6947    1.1467 C.ar    1  UNL1       -0.0605
     17 C           5.6605    0.7027    0.8061 C.ar    1  UNL1       -0.0486
     18 C           5.3994   -0.1835   -0.2158 C.ar    1  UNL1        0.0136
     19 I           6.7884   -1.6934   -0.7336 I       1  UNL1       -0.0438
     20 C           4.2060   -0.0571   -0.8910 C.ar    1  UNL1       -0.0450
     21 C          -1.5863   -1.9190   -1.0489 C.ar    1  UNL1       -0.0373
     22 H          -2.9610   -4.0699   -2.0534 H       1  UNL1        0.0278
     23 H          -3.4511   -4.6664   -0.3707 H       1  UNL1        0.0278
     24 H          -1.7007   -4.5584   -0.8987 H       1  UNL1        0.0278
     25 H          -4.1865   -2.7749    0.9146 H       1  UNL1        0.0620
     26 H          -3.8378   -0.4085    1.6285 H       1  UNL1        0.0621
     27 H          -0.9546    1.6209    0.6992 H       1  UNL1        0.0344
     28 H          -2.4075    2.4763   -1.0702 H       1  UNL1        0.0235
     29 H          -2.8139    3.2779    0.4606 H       1  UNL1        0.0235
     30 H          -3.8878    1.9849   -0.1281 H       1  UNL1        0.0235
     31 H          -2.0594    0.5677    2.7268 H       1  UNL1        0.0235
     32 H          -1.8859    2.3570    2.6516 H       1  UNL1        0.0235
     33 H          -3.5150    1.5866    2.3438 H       1  UNL1        0.0235
     34 H          -0.6077    0.7127   -2.0846 H       1  UNL1        0.1548
     35 H           2.1604    0.6037   -2.3425 H       1  UNL1        0.0407
     36 H           1.6653    2.0740   -1.4681 H       1  UNL1        0.0407
     37 H           2.8510    2.5708    0.7188 H       1  UNL1        0.0620
     38 H           5.0039    2.3642    1.9573 H       1  UNL1        0.0618
     39 H           6.5978    0.6053    1.3381 H       1  UNL1        0.0628
     40 H           4.0030   -0.7563   -1.6953 H       1  UNL1        0.0631
     41 H          -0.9486   -2.3625   -1.8141 H       1  UNL1        0.0639
@<TRIPOS>BOND
     1     1     2    1
     2     2     3   ar
     3     3     4   ar
     4     4     5   ar
     5     5     6    1
     6     6     7    1
     7     6     8    1
     8     5     9   ar
     9     9    10    1
    10    10    11   am
    11    11    12    2
    12    11    13    1
    13    13    14    1
    14    14    15   ar
    15    15    16   ar
    16    16    17   ar
    17    17    18   ar
    18    18    19    1
    19    18    20   ar
    20     9    21   ar
    21    21     2   ar
    22    20    14   ar
    23     1    22    1
    24     1    23    1
    25     1    24    1
    26     3    25    1
    27     4    26    1
    28     6    27    1
    29     7    28    1
    30     7    29    1
    31     7    30    1
    32     8    31    1
    33     8    32    1
    34     8    33    1
    35    10    34    1
    36    13    35    1
    37    13    36    1
    38    15    37    1
    39    16    38    1
    40    17    39    1
    41    20    40    1
    42    21    41    1
@<TRIPOS>MOLECULE
51078691
 30 32 0 0 0
SMALL
GASTEIGER

@<TRIPOS>ATOM
      1 C          -5.4778   -0.0383   -0.0930 C.3     1  UNL1       -0.0397
      2 C          -4.0084    0.1318   -0.0570 C.ar    1  UNL1       -0.0504
      3 C          -3.2287   -0.4969   -0.9910 C.ar    1  UNL1       -0.0583
      4 C          -1.8413   -0.3311   -0.9700 C.ar    1  UNL1       -0.0542
      5 C          -1.2831    0.4567   -0.0175 C.ar    1  UNL1       -0.0215
      6 C           0.1265    0.6978    0.0697 C.2     1  UNL1       -0.0115
      7 C           1.0382   -0.2251   -0.0390 C.2     1  UNL1        0.1404
      8 O           0.8461   -1.5708   -0.2497 O.3     1  UNL1       -0.4217
      9 C           2.1036   -2.1840   -0.2985 C.2     1  UNL1        0.3451
     10 O           2.3661   -3.3968   -0.4730 O.2     1  UNL1       -0.2445
     11 C           3.1250   -1.1643   -0.1074 C.ar    1  UNL1        0.0700
     12 C           4.5102   -1.1828   -0.0649 C.ar    1  UNL1       -0.0471
     13 C           5.2452   -0.0116    0.1326 C.ar    1  UNL1       -0.0609
     14 C           4.6088    1.1941    0.2911 C.ar    1  UNL1       -0.0610
     15 C           3.2311    1.2040    0.2484 C.ar    1  UNL1       -0.0503
     16 C           2.4925    0.0523    0.0538 C.ar    1  UNL1        0.0314
     17 C          -2.0694    1.1081    0.9489 C.ar    1  UNL1       -0.0542
     18 C          -3.4310    0.9278    0.9050 C.ar    1  UNL1       -0.0583
     19 H          -5.7676   -0.8238   -0.7807 H       1  UNL1        0.0278
     20 H          -5.7789   -0.2679    0.9715 H       1  UNL1        0.0278
     21 H          -5.9980    0.8989   -0.4105 H       1  UNL1        0.0278
     22 H          -3.6217   -1.1287   -1.7648 H       1  UNL1        0.0620
     23 H          -1.2063   -0.8131   -1.6948 H       1  UNL1        0.0624
     24 H           0.4565    1.7433    0.2488 H       1  UNL1        0.0660
     25 H           5.0007   -2.1351   -0.1891 H       1  UNL1        0.0626
     26 H           6.3291   -0.0530    0.1638 H       1  UNL1        0.0618
     27 H           5.1885    2.1102    0.4445 H       1  UNL1        0.0618
     28 H           2.6833    2.1313    0.3631 H       1  UNL1        0.0625
     29 H          -1.6065    1.7231    1.6932 H       1  UNL1        0.0624
     30 H          -4.0325    1.4439    1.6673 H       1  UNL1        0.0620
@<TRIPOS>BOND
     1     1     2    1
     2     2     3   ar
     3     3     4   ar
     4     4     5   ar
     5     5     6    1
     6     6     7    2
     7     7     8    1
     8     8     9    1
     9     9    10    2
    10     9    11    1
    11    11    12   ar
    12    12    13   ar
    13    13    14   ar
    14    14    15   ar
    15    15    16   ar
    16     5    17   ar
    17    17    18   ar
    18    18     2   ar
    19    16     7    1
    20    16    11   ar
    21     1    19    1
    22     1    20    1
    23     1    21    1
    24     3    22    1
    25     4    23    1
    26     6    24    1
    27    12    25    1
    28    13    26    1
    29    14    27    1
    30    15    28    1
    31    17    29    1
    32    18    30    1
@<TRIPOS>MOLECULE
50333141
 39 41 0 0 0
SMALL
GASTEIGER

@<TRIPOS>ATOM
      1 O          -0.0034   -0.4239    2.8060 O.2     1  UNL1       -0.2519
      2 C          -0.1117   -0.2496    1.5614 C.2     1  UNL1        0.3110
      3 N          -1.4708   -0.1120    1.0819 N.am    1  UNL1       -0.2687
      4 C          -1.7025    0.0873   -0.2996 C.2     1  UNL1        0.0397
      5 C          -3.0870    0.2261   -0.7777 C.ar    1  UNL1        0.0024
      6 C          -3.3301    0.4192   -2.1085 C.ar    1  UNL1       -0.0524
      7 C          -4.6466    0.5545   -2.5873 C.ar    1  UNL1       -0.0547
      8 C          -5.6846    0.4888   -1.6905 C.ar    1  UNL1        0.0156
      9 C          -5.4440    0.2956   -0.3584 C.ar    1  UNL1        0.2738
     10 N          -6.5183    0.2240    0.5956 N.pl3   1  UNL1        0.0796
     11 O          -6.3355    0.0508    1.8035 O.2     1  UNL1        0.0414
     12 O          -7.8006    0.3560    0.1285 O.co2   1  UNL1       -0.5760
     13 C          -4.1365    0.1604    0.1239 C.ar    1  UNL1        0.0245
     14 C          -0.6787    0.1414   -1.1042 C.2     1  UNL1       -0.0445
     15 C           0.7106    0.0138   -0.7115 C.3     1  UNL1        0.0414
     16 N           0.9741   -0.1897    0.6899 N.am    1  UNL1       -0.2515
     17 C           2.3333   -0.3158    1.0881 C.ar    1  UNL1        0.0384
     18 C           2.7035   -0.5094    2.3887 C.ar    1  UNL1       -0.0402
     19 C           4.0764   -0.6203    2.6658 C.ar    1  UNL1       -0.0597
     20 C           5.0294   -0.5403    1.6824 C.ar    1  UNL1       -0.0563
     21 C           4.6741   -0.3451    0.3645 C.ar    1  UNL1       -0.0204
     22 C           5.7070   -0.2587   -0.6992 C.3     1  UNL1        0.0693
     23 O           6.0826    1.0676   -0.8403 O.3     1  UNL1       -0.3904
     24 C           3.3342   -0.2381    0.1032 C.ar    1  UNL1       -0.0349
     25 H          -2.2493   -0.1642    1.7757 H       1  UNL1        0.1564
     26 H          -2.5554    0.4766   -2.8390 H       1  UNL1        0.0624
     27 H          -4.8140    0.7091   -3.6630 H       1  UNL1        0.0620
     28 H          -6.7149    0.5884   -2.0188 H       1  UNL1        0.0685
     29 H          -4.0219    0.0099    1.1906 H       1  UNL1        0.0692
     30 H          -0.8370    0.2964   -2.1876 H       1  UNL1        0.0606
     31 H           1.1572   -0.8665   -1.2702 H       1  UNL1        0.0513
     32 H           1.2314    0.9575   -1.0536 H       1  UNL1        0.0513
     33 H           2.0058   -0.5813    3.2093 H       1  UNL1        0.0636
     34 H           4.3535   -0.7749    3.7113 H       1  UNL1        0.0618
     35 H           6.0890   -0.6250    1.8893 H       1  UNL1        0.0621
     36 H           6.6141   -0.8435   -0.4439 H       1  UNL1        0.0607
     37 H           5.3510   -0.6201   -1.6795 H       1  UNL1        0.0607
     38 H           6.6761    1.2402   -1.5898 H       1  UNL1        0.2098
     39 H           3.0398   -0.0834   -0.9367 H       1  UNL1        0.0640
@<TRIPOS>UNITY_ATOM_ATTR
10 1
charge 1
12 1
charge -1
@<TRIPOS>BOND
     1     1     2    2
     2     2     3   am
     3     3     4    1
     4     4     5    1
     5     5     6   ar
     6     6     7   ar
     7     7     8   ar
     8     8     9   ar
     9     9    10    1
    10    10    11    2
    11    10    12    1
    12     9    13   ar
    13     4    14    2
    14    14    15    1
    15    15    16    1
    16    16    17    1
    17    17    18   ar
    18    18    19   ar
    19    19    20   ar
    20    20    21   ar
    21    21    22    1
    22    22    23    1
    23    21    24   ar
    24    16     2   am
    25    24    17   ar
    26    13     5   ar
    27     3    25    1
    28     6    26    1
    29     7    27    1
    30     8    28    1
    31    13    29    1
    32    14    30    1
    33    15    31    1
    34    15    32    1
    35    18    33    1
    36    19    34    1
    37    20    35    1
    38    22    36    1
    39    22    37    1
    40    23    38    1
    41    24    39    1
@<TRIPOS>MOLECULE
118719632
 45 47 0 0 0
SMALL
GASTEIGER

@<TRIPOS>ATOM
      1 O           5.3438   -0.9346    2.2954 O.2     1  UNL1       -0.2451
      2 C           4.1703   -0.7386    1.8814 C.2     1  UNL1        0.3387
      3 O           3.1876   -0.3814    2.7643 O.3     1  UNL1       -0.4771
      4 C           3.8884   -0.8987    0.4683 C.ar    1  UNL1        0.0854
      5 C           4.9391   -1.2899   -0.3818 C.ar    1  UNL1       -0.0459
      6 C           4.8048   -1.4869   -1.7266 C.ar    1  UNL1       -0.0609
      7 C           3.5709   -1.2945   -2.2960 C.ar    1  UNL1       -0.0599
      8 C           2.5174   -0.9119   -1.4993 C.ar    1  UNL1       -0.0343
      9 C           2.6621   -0.7118   -0.1284 C.ar    1  UNL1        0.1227
     10 S           1.2951   -0.2443    0.8365 S.O2    1  UNL1        0.0770
     11 O           1.6006    1.0783    1.4980 O.2     1  UNL1       -0.1497
     12 O           0.9707   -1.2508    1.8917 O.2     1  UNL1       -0.1497
     13 N          -0.1030    0.0519   -0.1728 N.pl3   1  UNL1       -0.1801
     14 C          -0.1415    1.0829   -1.1655 C.3     1  UNL1        0.0615
     15 C          -0.8877    2.2975   -0.8016 C.ar    1  UNL1       -0.0283
     16 C          -2.2250    2.4696   -1.0892 C.ar    1  UNL1       -0.0570
     17 C          -2.9185    3.6110   -0.7503 C.ar    1  UNL1       -0.0615
     18 C          -2.2488    4.6232   -0.0968 C.ar    1  UNL1       -0.0617
     19 C          -0.9194    4.4910    0.2071 C.ar    1  UNL1       -0.0615
     20 C          -0.2411    3.3185   -0.1504 C.ar    1  UNL1       -0.0570
     21 C          -1.2129   -0.8342    0.0439 C.ar    1  UNL1        0.1591
     22 N          -1.3559   -1.9623   -0.6838 N.ar    1  UNL1       -0.2368
     23 C          -2.3689   -2.8205   -0.5004 C.ar    1  UNL1        0.0415
     24 C          -3.2953   -2.5255    0.4754 C.ar    1  UNL1        0.0744
     25 C          -4.4116   -3.4740    0.6747 C.3     1  UNL1        0.4189
     26 F          -3.9145   -4.7613    0.8039 F       1  UNL1       -0.1658
     27 F          -5.1143   -3.1468    1.7989 F       1  UNL1       -0.1658
     28 F          -5.2254   -3.3983   -0.4611 F       1  UNL1       -0.1658
     29 C          -3.1732   -1.3715    1.2401 C.ar    1  UNL1       -0.0269
     30 C          -2.1092   -0.4984    1.0269 C.ar    1  UNL1        0.0828
     31 CL         -1.9002    0.9487    1.9791 Cl      1  UNL1       -0.0799
     32 H           3.3249   -0.2922    3.7704 H       1  UNL1        0.2954
     33 H           5.9240   -1.4420    0.0832 H       1  UNL1        0.0626
     34 H           5.6489   -1.7919   -2.3570 H       1  UNL1        0.0618
     35 H           3.4646   -1.4526   -3.3714 H       1  UNL1        0.0618
     36 H           1.5577   -0.7854   -1.9660 H       1  UNL1        0.0637
     37 H          -0.5553    0.6845   -2.1049 H       1  UNL1        0.0532
     38 H           0.9378    1.3409   -1.3881 H       1  UNL1        0.0532
     39 H          -2.7911    1.6806   -1.6107 H       1  UNL1        0.0621
     40 H          -3.9600    3.7504   -0.9718 H       1  UNL1        0.0618
     41 H          -2.7503    5.5474    0.1941 H       1  UNL1        0.0618
     42 H          -0.4171    5.2943    0.7177 H       1  UNL1        0.0618
     43 H           0.7938    3.2936    0.1193 H       1  UNL1        0.0621
     44 H          -2.4783   -3.7352   -1.0957 H       1  UNL1        0.0836
     45 H          -3.8842   -1.1287    2.0012 H       1  UNL1        0.0639
@<TRIPOS>BOND
     1     1     2    2
     2     2     3    1
     3     2     4    1
     4     4     5   ar
     5     5     6   ar
     6     6     7   ar
     7     7     8   ar
     8     8     9   ar
     9     9    10    1
    10    10    11    2
    11    10    12    2
    12    10    13    1
    13    13    14    1
    14    14    15    1
    15    15    16   ar
    16    16    17   ar
    17    17    18   ar
    18    18    19   ar
    19    19    20   ar
    20    13    21    1
    21    21    22   ar
    22    22    23   ar
    23    23    24   ar
    24    24    25    1
    25    25    26    1
    26    25    27    1
    27    25    28    1
    28    24    29   ar
    29    29    30   ar
    30    30    31    1
    31     9     4   ar
    32    20    15   ar
    33    30    21   ar
    34     3    32    1
    35     5    33    1
    36     6    34    1
    37     7    35    1
    38     8    36    1
    39    14    37    1
    40    14    38    1
    41    16    39    1
    42    17    40    1
    43    18    41    1
    44    19    42    1
    45    20    43    1
    46    23    44    1
    47    29    45    1
@<TRIPOS>MOLECULE
171342208
 30 32 0 0 0
SMALL
GASTEIGER

@<TRIPOS>ATOM
      1 C          -6.0413   -0.2452   -0.6567 C.3     1  UNL1       -0.0438
      2 C          -5.2982   -0.6460    0.5923 C.3     1  UNL1        0.0600
      3 N          -4.0680    0.0960    0.6817 N.ar    1  UNL1       -0.1631
      4 N          -3.8363    1.2760    1.2639 N.ar    1  UNL1       -0.0458
      5 N          -2.5535    1.5957    1.1104 N.ar    1  UNL1       -0.1071
      6 C          -1.9503    0.6240    0.4284 C.ar    1  UNL1        0.2163
      7 C          -0.5958    0.4802    0.0046 C.ar    1  UNL1        0.1230
      8 S           0.8243    0.1486    1.1232 S.2     1  UNL1       -0.0600
      9 C           2.0306    0.1389   -0.2780 C.ar    1  UNL1        0.1156
     10 C           3.4722   -0.1053    0.0586 C.ar    1  UNL1        0.0438
     11 C           3.9148   -0.3158    1.3341 C.ar    1  UNL1        0.0520
     12 CL          2.7660   -0.3046    2.6526 Cl      1  UNL1       -0.0828
     13 C           5.2783   -0.5398    1.5919 C.ar    1  UNL1       -0.0426
     14 C           6.1731   -0.5458    0.5417 C.ar    1  UNL1       -0.0590
     15 C           5.7156   -0.3324   -0.7409 C.ar    1  UNL1       -0.0426
     16 C           4.3513   -0.1114   -0.9712 C.ar    1  UNL1        0.0520
     17 CL          3.7867    0.1588   -2.6135 Cl      1  UNL1       -0.0828
     18 N           1.3360    0.3425   -1.1833 N.ar    1  UNL1       -0.2046
     19 C           0.0263    0.5307   -1.1986 C.ar    1  UNL1        0.2313
     20 O          -0.7465    0.7767   -2.3746 O.3     1  UNL1       -0.4915
     21 N          -2.9232   -0.2912    0.1792 N.ar    1  UNL1       -0.1297
     22 H          -6.6776   -1.0991   -1.0241 H       1  UNL1        0.0248
     23 H          -5.3520    0.0551   -1.4592 H       1  UNL1        0.0248
     24 H          -6.7308    0.6092   -0.4206 H       1  UNL1        0.0248
     25 H          -5.0608   -1.7325    0.4998 H       1  UNL1        0.0524
     26 H          -5.8851   -0.4470    1.5185 H       1  UNL1        0.0524
     27 H           5.5817   -0.7012    2.6144 H       1  UNL1        0.0632
     28 H           7.2140   -0.7221    0.7844 H       1  UNL1        0.0618
     29 H           6.4477   -0.3448   -1.5352 H       1  UNL1        0.0632
     30 H          -1.1989    1.6518   -2.5234 H       1  UNL1        0.2938
@<TRIPOS>BOND
     1     1     2    1
     2     2     3    1
     3     3     4   ar
     4     4     5   ar
     5     5     6   ar
     6     6     7    1
     7     7     8   ar
     8     8     9   ar
     9     9    10    1
    10    10    11   ar
    11    11    12    1
    12    11    13   ar
    13    13    14   ar
    14    14    15   ar
    15    15    16   ar
    16    16    17    1
    17     9    18   ar
    18    18    19   ar
    19    19    20    1
    20     6    21   ar
    21    21     3   ar
    22    19     7   ar
    23    16    10   ar
    24     1    22    1
    25     1    23    1
    26     1    24    1
    27     2    25    1
    28     2    26    1
    29    13    27    1
    30    14    28    1
    31    15    29    1
    32    20    30    1
@<TRIPOS>MOLECULE
50333158
 39 41 0 0 0
SMALL
GASTEIGER

@<TRIPOS>ATOM
      1 C          -5.7702   -1.2877    1.2522 C.3     1  UNL1       -0.0396
      2 C          -4.8975   -0.7029    0.1923 C.ar    1  UNL1       -0.0485
      3 C          -5.4490   -0.2476   -0.9800 C.ar    1  UNL1       -0.0553
      4 C          -4.6426    0.2933   -1.9605 C.ar    1  UNL1       -0.0181
      5 C          -3.2756    0.3756   -1.7593 C.ar    1  UNL1        0.1382
      6 O          -2.4705    0.9155   -2.7380 O.3     1  UNL1       -0.5049
      7 C          -2.7091   -0.0751   -0.5932 C.ar    1  UNL1        0.0797
      8 N          -1.2966   -0.0010   -0.3608 N.am    1  UNL1       -0.2480
      9 C          -0.7129    1.1447    0.2545 C.3     1  UNL1        0.0415
     10 C           0.7508    1.1031    0.4402 C.2     1  UNL1       -0.0445
     11 C           1.5576    0.1219    0.0963 C.2     1  UNL1        0.0395
     12 C           3.0131    0.1649    0.3203 C.ar    1  UNL1       -0.0036
     13 C           3.6492    1.2349    0.9078 C.ar    1  UNL1       -0.0464
     14 C           5.0363    1.2584    1.1130 C.ar    1  UNL1        0.0162
     15 C           5.8263    0.2031    0.7322 C.ar    1  UNL1        0.2732
     16 N           7.2362    0.2479    0.9507 N.pl3   1  UNL1        0.0796
     17 O           7.9305   -0.7314    0.5919 O.2     1  UNL1        0.0414
     18 O           7.8658    1.3039    1.5306 O.co2   1  UNL1       -0.5760
     19 C           5.2092   -0.8719    0.1451 C.ar    1  UNL1        0.0162
     20 C           3.8218   -0.8858   -0.0557 C.ar    1  UNL1       -0.0464
     21 N           0.9493   -1.0084   -0.5152 N.am    1  UNL1       -0.2687
     22 C          -0.4642   -1.0830   -0.7479 C.2     1  UNL1        0.3111
     23 O          -0.9810   -2.0985   -1.2931 O.2     1  UNL1       -0.2519
     24 C          -3.5302   -0.6091    0.3680 C.ar    1  UNL1       -0.0337
     25 H          -6.1845   -2.2694    0.9510 H       1  UNL1        0.0278
     26 H          -5.1562   -1.4225    2.1560 H       1  UNL1        0.0278
     27 H          -6.5614   -0.5308    1.4590 H       1  UNL1        0.0278
     28 H          -6.5379   -0.3191   -1.1270 H       1  UNL1        0.0621
     29 H          -5.0771    0.6512   -2.8822 H       1  UNL1        0.0655
     30 H          -2.2657    1.9171   -2.8013 H       1  UNL1        0.2922
     31 H          -0.9658    2.0235   -0.3754 H       1  UNL1        0.0513
     32 H          -1.1751    1.2755    1.2607 H       1  UNL1        0.0513
     33 H           1.1767    1.9875    0.9116 H       1  UNL1        0.0606
     34 H           3.0617    2.0932    1.2252 H       1  UNL1        0.0626
     35 H           5.5017    2.1228    1.5808 H       1  UNL1        0.0685
     36 H           5.7895   -1.7213   -0.1691 H       1  UNL1        0.0685
     37 H           3.3683   -1.7594   -0.5261 H       1  UNL1        0.0626
     38 H           1.4768   -1.8507   -0.8334 H       1  UNL1        0.1564
     39 H          -3.0979   -0.9624    1.2787 H       1  UNL1        0.0640
@<TRIPOS>UNITY_ATOM_ATTR
16 1
charge 1
18 1
charge -1
@<TRIPOS>BOND
     1     1     2    1
     2     2     3   ar
     3     3     4   ar
     4     4     5   ar
     5     5     6    1
     6     5     7   ar
     7     7     8    1
     8     8     9    1
     9     9    10    1
    10    10    11    2
    11    11    12    1
    12    12    13   ar
    13    13    14   ar
    14    14    15   ar
    15    15    16    1
    16    16    17    2
    17    16    18    1
    18    15    19   ar
    19    19    20   ar
    20    11    21    1
    21    21    22   am
    22    22    23    2
    23     7    24   ar
    24    24     2   ar
    25    22     8   am
    26    20    12   ar
    27     1    25    1
    28     1    26    1
    29     1    27    1
    30     3    28    1
    31     4    29    1
    32     6    30    1
    33     9    31    1
    34     9    32    1
    35    10    33    1
    36    13    34    1
    37    14    35    1
    38    19    36    1
    39    20    37    1
    40    21    38    1
    41    24    39    1
@<TRIPOS>MOLECULE
51129944
 55 57 0 0 0
SMALL
GASTEIGER

@<TRIPOS>ATOM
      1 C           6.4578   -1.1368    0.7754 C.3     1  UNL1       -0.0653
      2 C           6.6202    0.3366    0.6844 C.3     1  UNL1       -0.0559
      3 C           5.9326    1.0394   -0.4153 C.3     1  UNL1       -0.0530
      4 C           4.4476    1.0170   -0.4773 C.3     1  UNL1       -0.0491
      5 C           3.8121   -0.3136   -0.5979 C.3     1  UNL1       -0.0275
      6 C           2.3228   -0.2211   -0.7046 C.ar    1  UNL1       -0.0404
      7 C           1.7674   -0.1169   -1.9572 C.ar    1  UNL1       -0.0165
      8 C           0.3817   -0.0274   -2.1034 C.ar    1  UNL1        0.1238
      9 O          -0.1490    0.0765   -3.3781 O.3     1  UNL1       -0.5064
     10 C          -0.3637   -0.0500   -0.9468 C.ar    1  UNL1        0.0361
     11 C           0.1589   -0.1529    0.3170 C.ar    1  UNL1        0.1282
     12 C           1.5508   -0.2411    0.4348 C.ar    1  UNL1       -0.0162
     13 O          -0.6762   -0.1658    1.3958 O.3     1  UNL1       -0.4853
     14 C          -2.0850   -0.0348    1.3414 C.3     1  UNL1        0.1115
     15 C          -2.6210   -0.7223    2.5744 C.3     1  UNL1       -0.0246
     16 C          -2.3957    1.4399    1.3454 C.3     1  UNL1       -0.0129
     17 C          -3.8508    1.7270    1.0815 C.3     1  UNL1       -0.0490
     18 C          -4.3992    1.0225   -0.1101 C.3     1  UNL1       -0.0474
     19 C          -4.0310   -0.4331   -0.1923 C.3     1  UNL1       -0.0281
     20 C          -4.9245   -1.2639    0.6629 C.3     1  UNL1       -0.0594
     21 C          -4.2794   -0.8579   -1.6469 C.3     1  UNL1       -0.0594
     22 C          -2.5657   -0.6333    0.0645 C.3     1  UNL1        0.0080
     23 C          -1.8356    0.0437   -1.0778 C.3     1  UNL1       -0.0138
     24 H           7.4688   -1.6036    1.0359 H       1  UNL1        0.0230
     25 H           6.1661   -1.5513   -0.1961 H       1  UNL1        0.0230
     26 H           5.8185   -1.4201    1.6324 H       1  UNL1        0.0230
     27 H           7.7284    0.5454    0.5595 H       1  UNL1        0.0263
     28 H           6.4037    0.7861    1.6948 H       1  UNL1        0.0263
     29 H           6.3129    0.6248   -1.3911 H       1  UNL1        0.0265
     30 H           6.3201    2.1150   -0.3857 H       1  UNL1        0.0265
     31 H           4.1532    1.7187   -1.2973 H       1  UNL1        0.0268
     32 H           4.0859    1.4444    0.5172 H       1  UNL1        0.0268
     33 H           3.9848   -0.9630    0.3066 H       1  UNL1        0.0313
     34 H           4.1733   -0.8575   -1.4786 H       1  UNL1        0.0313
     35 H           2.4304   -0.1071   -2.8074 H       1  UNL1        0.0657
     36 H          -0.9296   -0.4487   -3.7119 H       1  UNL1        0.2921
     37 H           1.9499   -0.3209    1.4208 H       1  UNL1        0.0657
     38 H          -2.4098   -1.7987    2.5026 H       1  UNL1        0.0268
     39 H          -1.9811   -0.3514    3.4294 H       1  UNL1        0.0268
     40 H          -3.6439   -0.4564    2.8286 H       1  UNL1        0.0268
     41 H          -1.7291    1.9470    0.6400 H       1  UNL1        0.0304
     42 H          -2.1628    1.8275    2.3603 H       1  UNL1        0.0304
     43 H          -3.9114    2.8345    0.8653 H       1  UNL1        0.0267
     44 H          -4.4648    1.5854    1.9978 H       1  UNL1        0.0267
     45 H          -5.5254    1.0594   -0.0262 H       1  UNL1        0.0271
     46 H          -4.1759    1.5567   -1.0639 H       1  UNL1        0.0271
     47 H          -5.7258   -1.7826    0.0575 H       1  UNL1        0.0235
     48 H          -5.5149   -0.5696    1.3307 H       1  UNL1        0.0235
     49 H          -4.4239   -2.0626    1.2253 H       1  UNL1        0.0235
     50 H          -5.3512   -1.2058   -1.7181 H       1  UNL1        0.0235
     51 H          -4.1024   -0.0456   -2.3518 H       1  UNL1        0.0235
     52 H          -3.6757   -1.7706   -1.8285 H       1  UNL1        0.0235
     53 H          -2.3191   -1.7136    0.0053 H       1  UNL1        0.0348
     54 H          -2.0948    1.1097   -1.1838 H       1  UNL1        0.0320
     55 H          -2.1297   -0.4571   -2.0383 H       1  UNL1        0.0320
@<TRIPOS>BOND
     1     1     2    1
     2     2     3    1
     3     3     4    1
     4     4     5    1
     5     5     6    1
     6     6     7   ar
     7     7     8   ar
     8     8     9    1
     9     8    10   ar
    10    10    11   ar
    11    11    12   ar
    12    11    13    1
    13    13    14    1
    14    14    15    1
    15    14    16    1
    16    16    17    1
    17    17    18    1
    18    18    19    1
    19    19    20    1
    20    19    21    1
    21    19    22    1
    22    22    23    1
    23    12     6   ar
    24    22    14    1
    25    23    10    1
    26     1    24    1
    27     1    25    1
    28     1    26    1
    29     2    27    1
    30     2    28    1
    31     3    29    1
    32     3    30    1
    33     4    31    1
    34     4    32    1
    35     5    33    1
    36     5    34    1
    37     7    35    1
    38     9    36    1
    39    12    37    1
    40    15    38    1
    41    15    39    1
    42    15    40    1
    43    16    41    1
    44    16    42    1
    45    17    43    1
    46    17    44    1
    47    18    45    1
    48    18    46    1
    49    20    47    1
    50    20    48    1
    51    20    49    1
    52    21    50    1
    53    21    51    1
    54    21    52    1
    55    22    53    1
    56    23    54    1
    57    23    55    1
@<TRIPOS>MOLECULE
90645459
 28 30 0 0 0
SMALL
GASTEIGER

@<TRIPOS>ATOM
      1 F          -0.8980   -2.2275    0.9138 F       1  UNL1       -0.1659
      2 C          -1.3245   -1.9924   -0.3727 C.3     1  UNL1        0.4180
      3 F          -2.2368   -2.9856   -0.7063 F       1  UNL1       -0.1659
      4 F          -0.2098   -2.1007   -1.1827 F       1  UNL1       -0.1659
      5 C          -1.9258   -0.6444   -0.4489 C.ar    1  UNL1        0.0625
      6 C          -3.2476   -0.5677   -0.8481 C.ar    1  UNL1       -0.0495
      7 C          -3.8442    0.6657   -0.9483 C.ar    1  UNL1       -0.0612
      8 C          -3.1031    1.7993   -0.6458 C.ar    1  UNL1       -0.0612
      9 C          -1.7953    1.7039   -0.2519 C.ar    1  UNL1       -0.0534
     10 C          -1.1763    0.4596   -0.1454 C.ar    1  UNL1       -0.0048
     11 C           0.2020    0.3196    0.2828 C.ar    1  UNL1        0.0017
     12 C           1.2172    0.2325   -0.6651 C.ar    1  UNL1       -0.0419
     13 C           2.5331    0.0866   -0.3238 C.ar    1  UNL1        0.0201
     14 C           3.7253   -0.0240   -1.0488 C.ar    1  UNL1        0.0569
     15 N           4.7032   -0.1461   -0.1516 N.ar    1  UNL1       -0.1812
     16 N           4.2507   -0.1241    1.0739 N.ar    1  UNL1       -0.2769
     17 C           2.9133    0.0187    0.9975 C.ar    1  UNL1        0.0671
     18 C           1.9299    0.1023    1.9662 C.ar    1  UNL1       -0.0174
     19 C           0.6003    0.2505    1.6004 C.ar    1  UNL1        0.0507
     20 CL         -0.6086    0.3723    2.8508 Cl      1  UNL1       -0.0828
     21 H          -3.8321   -1.4390   -1.0852 H       1  UNL1        0.0623
     22 H          -4.8821    0.7841   -1.2579 H       1  UNL1        0.0618
     23 H          -3.5601    2.7596   -0.7217 H       1  UNL1        0.0618
     24 H          -1.1720    2.5702   -0.0034 H       1  UNL1        0.0624
     25 H           0.9309    0.2854   -1.7031 H       1  UNL1        0.0631
     26 H           3.7522   -0.0043   -2.1249 H       1  UNL1        0.0854
     27 H           4.8058   -0.2012    1.9541 H       1  UNL1        0.1889
     28 H           2.2525    0.0466    2.9961 H       1  UNL1        0.0653
@<TRIPOS>BOND
     1     1     2    1
     2     2     3    1
     3     2     4    1
     4     2     5    1
     5     5     6   ar
     6     6     7   ar
     7     7     8   ar
     8     8     9   ar
     9     9    10   ar
    10    10    11    1
    11    11    12   ar
    12    12    13   ar
    13    13    14   ar
    14    14    15   ar
    15    15    16   ar
    16    16    17   ar
    17    17    18   ar
    18    18    19   ar
    19    19    20    1
    20    10     5   ar
    21    19    11   ar
    22    17    13   ar
    23     6    21    1
    24     7    22    1
    25     8    23    1
    26     9    24    1
    27    12    25    1
    28    14    26    1
    29    16    27    1
    30    18    28    1
@<TRIPOS>MOLECULE
51467443
 50 53 0 0 0
SMALL
GASTEIGER

@<TRIPOS>ATOM
      1 O           2.5666   -1.4026    1.4011 O.2     1  UNL1       -0.2741
      2 C           1.8284   -1.0369    0.4625 C.2     1  UNL1        0.2307
      3 N           2.3887   -0.9084   -0.8291 N.am    1  UNL1       -0.3099
      4 C           3.7756   -1.1690   -1.1564 C.3     1  UNL1        0.0369
      5 C           4.6378   -0.0404   -0.7279 C.ar    1  UNL1       -0.0302
      6 C           4.8137    1.0418   -1.6012 C.ar    1  UNL1       -0.0544
      7 C           5.6091    2.1146   -1.2671 C.ar    1  UNL1       -0.0261
      8 C           6.2694    2.1759   -0.0597 C.ar    1  UNL1        0.1234
      9 F           7.0579    3.2403    0.2718 F       1  UNL1       -0.2055
     10 C           6.0897    1.1092    0.7884 C.ar    1  UNL1       -0.0261
     11 C           5.3005    0.0244    0.4792 C.ar    1  UNL1       -0.0544
     12 C           0.4060   -0.7625    0.7756 C.3     1  UNL1        0.0894
     13 C          -0.2702   -1.8955    1.4651 C.3     1  UNL1       -0.0033
     14 C          -1.7374   -1.6778    1.4671 C.ar    1  UNL1       -0.0368
     15 C          -2.5415   -2.6328    2.1220 C.ar    1  UNL1       -0.0130
     16 C          -3.9062   -2.4822    2.1550 C.ar    1  UNL1        0.1585
     17 O          -4.7152   -3.4315    2.8069 O.3     1  UNL1       -0.5033
     18 C          -4.4494   -1.3808    1.5340 C.ar    1  UNL1        0.1586
     19 O          -5.8168   -1.2232    1.5629 O.3     1  UNL1       -0.5033
     20 C          -3.6836   -0.4345    0.8879 C.ar    1  UNL1       -0.0113
     21 C          -2.3144   -0.5899    0.8575 C.ar    1  UNL1       -0.0192
     22 C          -1.4839    0.3978    0.1802 C.3     1  UNL1        0.0594
     23 C          -2.1613    1.2225   -0.8006 C.ar    1  UNL1       -0.0259
     24 C          -2.4597    0.7389   -2.0504 C.ar    1  UNL1       -0.0540
     25 C          -3.1139    1.5271   -3.0021 C.ar    1  UNL1       -0.0261
     26 C          -3.4669    2.8223   -2.6738 C.ar    1  UNL1        0.1234
     27 F          -4.1118    3.6143   -3.5976 F       1  UNL1       -0.2055
     28 C          -3.1704    3.3104   -1.4244 C.ar    1  UNL1       -0.0261
     29 C          -2.5225    2.5138   -0.4975 C.ar    1  UNL1       -0.0540
     30 N          -0.3431   -0.3413   -0.3901 N.3     1  UNL1       -0.2948
     31 H           1.7069   -0.5946   -1.5900 H       1  UNL1        0.1491
     32 H           4.1425   -2.0976   -0.6642 H       1  UNL1        0.0512
     33 H           3.9000   -1.2939   -2.2443 H       1  UNL1        0.0512
     34 H           4.2875    0.9812   -2.5500 H       1  UNL1        0.0622
     35 H           5.7042    2.9156   -1.9815 H       1  UNL1        0.0646
     36 H           6.5881    1.1193    1.7404 H       1  UNL1        0.0646
     37 H           5.1920   -0.8104    1.1872 H       1  UNL1        0.0622
     38 H           0.4172    0.1183    1.4852 H       1  UNL1        0.0560
     39 H           0.1367   -1.9405    2.5079 H       1  UNL1        0.0333
     40 H          -0.0392   -2.8607    0.9248 H       1  UNL1        0.0333
     41 H          -2.0857   -3.4903    2.6023 H       1  UNL1        0.0658
     42 H          -4.8628   -3.3676    3.8071 H       1  UNL1        0.2923
     43 H          -6.3732   -1.6630    2.2626 H       1  UNL1        0.2923
     44 H          -4.0842    0.4380    0.3935 H       1  UNL1        0.0659
     45 H          -1.0007    1.0774    0.9443 H       1  UNL1        0.0560
     46 H          -2.2052   -0.2635   -2.3535 H       1  UNL1        0.0622
     47 H          -3.3493    1.1469   -3.9867 H       1  UNL1        0.0646
     48 H          -3.4646    4.3299   -1.2083 H       1  UNL1        0.0646
     49 H          -2.3114    2.9599    0.4872 H       1  UNL1        0.0622
     50 H          -0.7739   -1.1486   -0.9032 H       1  UNL1        0.1235
@<TRIPOS>BOND
     1     1     2    2
     2     2     3   am
     3     3     4    1
     4     4     5    1
     5     5     6   ar
     6     6     7   ar
     7     7     8   ar
     8     8     9    1
     9     8    10   ar
    10    10    11   ar
    11     2    12    1
    12    12    13    1
    13    13    14    1
    14    14    15   ar
    15    15    16   ar
    16    16    17    1
    17    16    18   ar
    18    18    19    1
    19    18    20   ar
    20    20    21   ar
    21    21    22    1
    22    22    23    1
    23    23    24   ar
    24    24    25   ar
    25    25    26   ar
    26    26    27    1
    27    26    28   ar
    28    28    29   ar
    29    22    30    1
    30    11     5   ar
    31    30    12    1
    32    21    14   ar
    33    29    23   ar
    34     3    31    1
    35     4    32    1
    36     4    33    1
    37     6    34    1
    38     7    35    1
    39    10    36    1
    40    11    37    1
    41    12    38    1
    42    13    39    1
    43    13    40    1
    44    15    41    1
    45    17    42    1
    46    19    43    1
    47    20    44    1
    48    22    45    1
    49    24    46    1
    50    25    47    1
    51    28    48    1
    52    29    49    1
    53    30    50    1
@<TRIPOS>MOLECULE
51345622
 52 57 0 0 0
SMALL
GASTEIGER

@<TRIPOS>ATOM
      1 O           1.8122    0.1254   -3.0805 O.2     1  UNL1       -0.2731
      2 C           1.4554   -0.0616   -1.9227 C.2     1  UNL1        0.2442
      3 C           0.3254    0.4747   -1.1873 C.3     1  UNL1        0.1093
      4 C          -0.8079    1.1039   -1.9351 C.3     1  UNL1        0.0020
      5 C          -1.8117    1.3899   -0.8432 C.ar    1  UNL1       -0.0147
      6 C          -2.1701    0.2936   -0.0288 C.ar    1  UNL1        0.0456
      7 N          -3.0018    0.7286    0.9267 N.ar    1  UNL1       -0.3560
      8 C          -3.1840    2.0685    0.7366 C.ar    1  UNL1        0.0470
      9 C          -3.9327    2.9999    1.4191 C.ar    1  UNL1       -0.0378
     10 C          -3.9300    4.3107    0.9953 C.ar    1  UNL1       -0.0598
     11 C          -3.2002    4.7321   -0.0961 C.ar    1  UNL1       -0.0611
     12 C          -2.4444    3.7964   -0.7866 C.ar    1  UNL1       -0.0523
     13 C          -2.4563    2.4740   -0.3470 C.ar    1  UNL1        0.0032
     14 C          -1.5587   -0.9708   -0.4654 C.3     1  UNL1        0.0938
     15 C          -1.9983   -2.2363    0.0232 C.ar    1  UNL1       -0.0210
     16 C          -1.1976   -3.3427   -0.3095 C.ar    1  UNL1       -0.0537
     17 C          -1.5427   -4.6088    0.0926 C.ar    1  UNL1       -0.0261
     18 C          -2.6740   -4.8674    0.8319 C.ar    1  UNL1        0.1234
     19 F          -3.0035   -6.1242    1.2237 F       1  UNL1       -0.2055
     20 C          -3.4656   -3.7838    1.1602 C.ar    1  UNL1       -0.0261
     21 C          -3.1150   -2.4808    0.7491 C.ar    1  UNL1       -0.0537
     22 N          -0.1326   -0.7564   -0.4791 N.am    1  UNL1       -0.2608
     23 C           1.0834   -1.3402   -0.0651 C.2     1  UNL1        0.3128
     24 O           1.1971   -2.0874    0.9262 O.2     1  UNL1       -0.2519
     25 N           2.1370   -0.9204   -0.9749 N.am    1  UNL1       -0.2199
     26 C           3.5178   -1.2818   -0.9327 C.3     1  UNL1        0.0489
     27 C           4.2807   -0.3284   -0.1208 C.ar    1  UNL1       -0.0296
     28 C           4.4273   -0.5570    1.2278 C.ar    1  UNL1       -0.0571
     29 C           5.1444    0.3239    2.0355 C.ar    1  UNL1       -0.0615
     30 C           5.7104    1.4385    1.4590 C.ar    1  UNL1       -0.0617
     31 C           5.5816    1.6983    0.1031 C.ar    1  UNL1       -0.0615
     32 C           4.8579    0.7942   -0.6682 C.ar    1  UNL1       -0.0571
     33 H           0.6430    1.2022   -0.3792 H       1  UNL1        0.0601
     34 H          -1.2225    0.4405   -2.6699 H       1  UNL1        0.0337
     35 H          -0.4380    2.0692   -2.3605 H       1  UNL1        0.0337
     36 H          -3.4563    0.2033    1.7325 H       1  UNL1        0.1657
     37 H          -4.5002    2.6747    2.2670 H       1  UNL1        0.0638
     38 H          -4.5216    5.0692    1.5273 H       1  UNL1        0.0618
     39 H          -3.2010    5.7705   -0.4281 H       1  UNL1        0.0618
     40 H          -1.8518    4.0452   -1.6428 H       1  UNL1        0.0624
     41 H          -1.8481   -1.0118   -1.6014 H       1  UNL1        0.0616
     42 H          -0.2989   -3.2664   -0.9025 H       1  UNL1        0.0622
     43 H          -0.9273   -5.4663   -0.1611 H       1  UNL1        0.0646
     44 H          -4.3551   -3.9222    1.7316 H       1  UNL1        0.0646
     45 H          -3.8380   -1.7414    1.0491 H       1  UNL1        0.0622
     46 H           3.9016   -1.2702   -1.9943 H       1  UNL1        0.0519
     47 H           3.6417   -2.3344   -0.6070 H       1  UNL1        0.0519
     48 H           3.9994   -1.4190    1.7201 H       1  UNL1        0.0621
     49 H           5.2835    0.1826    3.0961 H       1  UNL1        0.0618
     50 H           6.2853    2.1650    2.0473 H       1  UNL1        0.0618
     51 H           6.0222    2.5718   -0.3625 H       1  UNL1        0.0618
     52 H           4.7787    1.0328   -1.7303 H       1  UNL1        0.0621
@<TRIPOS>BOND
     1     1     2    2
     2     2     3    1
     3     3     4    1
     4     4     5    1
     5     5     6   ar
     6     6     7   ar
     7     7     8   ar
     8     8     9   ar
     9     9    10   ar
    10    10    11   ar
    11    11    12   ar
    12    12    13   ar
    13     6    14    1
    14    14    15    1
    15    15    16   ar
    16    16    17   ar
    17    17    18   ar
    18    18    19    1
    19    18    20   ar
    20    20    21   ar
    21    14    22    1
    22    22    23   am
    23    23    24    2
    24    23    25   am
    25    25    26    1
    26    26    27    1
    27    27    28   ar
    28    28    29   ar
    29    29    30   ar
    30    30    31   ar
    31    31    32   ar
    32    25     2   am
    33    32    27   ar
    34    22     3    1
    35    13     5   ar
    36    21    15   ar
    37    13     8   ar
    38     3    33    1
    39     4    34    1
    40     4    35    1
    41     7    36    1
    42     9    37    1
    43    10    38    1
    44    11    39    1
    45    12    40    1
    46    14    41    1
    47    16    42    1
    48    17    43    1
    49    20    44    1
    50    21    45    1
    51    26    46    1
    52    26    47    1
    53    28    48    1
    54    29    49    1
    55    30    50    1
    56    31    51    1
    57    32    52    1
@<TRIPOS>MOLECULE
51345614
 42 46 0 0 0
SMALL
GASTEIGER

@<TRIPOS>ATOM
      1 O          -1.5238   -1.4066    1.5783 O.2     1  UNL1       -0.2731
      2 C          -1.0915   -1.0399    0.4511 C.2     1  UNL1        0.2442
      3 C           0.2864   -0.8573   -0.0372 C.3     1  UNL1        0.1087
      4 C           1.2819   -0.5621    1.0601 C.3     1  UNL1        0.0019
      5 C           2.5431   -0.1412    0.4055 C.ar    1  UNL1       -0.0153
      6 C           2.4751    0.7694   -0.6211 C.ar    1  UNL1        0.0379
      7 N           3.7275    1.0062   -1.0672 N.ar    1  UNL1       -0.3564
      8 C           4.5901    0.2633   -0.3433 C.ar    1  UNL1        0.0470
      9 C           5.9683    0.1667   -0.4276 C.ar    1  UNL1       -0.0378
     10 C           6.6518   -0.6708    0.4292 C.ar    1  UNL1       -0.0598
     11 C           5.9236   -1.3878    1.3477 C.ar    1  UNL1       -0.0611
     12 C           4.5500   -1.3101    1.4528 C.ar    1  UNL1       -0.0523
     13 C           3.8713   -0.4642    0.5859 C.ar    1  UNL1        0.0032
     14 C           1.1623    1.3099   -1.0490 C.3     1  UNL1        0.0573
     15 N           0.1444    0.2944   -0.9041 N.am    1  UNL1       -0.2675
     16 C          -1.1604    0.1307   -1.4971 C.2     1  UNL1        0.3124
     17 O          -1.4864    0.6785   -2.6023 O.2     1  UNL1       -0.2519
     18 N          -1.9471   -0.7052   -0.6565 N.am    1  UNL1       -0.2199
     19 C          -3.3085   -1.1045   -0.9042 C.3     1  UNL1        0.0489
     20 C          -4.2951   -0.1667   -0.3282 C.ar    1  UNL1       -0.0294
     21 C          -4.7544    0.8959   -1.0738 C.ar    1  UNL1       -0.0543
     22 C          -5.6903    1.7783   -0.5159 C.ar    1  UNL1       -0.0261
     23 C          -6.1564    1.5961    0.7688 C.ar    1  UNL1        0.1234
     24 F          -7.0625    2.4519    1.3066 F       1  UNL1       -0.2055
     25 C          -5.7008    0.5419    1.5086 C.ar    1  UNL1       -0.0261
     26 C          -4.7777   -0.3216    0.9473 C.ar    1  UNL1       -0.0543
     27 H           0.6298   -1.7652   -0.5923 H       1  UNL1        0.0601
     28 H           0.8691    0.2685    1.6735 H       1  UNL1        0.0337
     29 H           1.4421   -1.4749    1.6626 H       1  UNL1        0.0337
     30 H           3.9741    1.6582   -1.8438 H       1  UNL1        0.1656
     31 H           6.4789    0.7667   -1.1823 H       1  UNL1        0.0638
     32 H           7.7467   -0.7480    0.3627 H       1  UNL1        0.0618
     33 H           6.4689   -2.0484    2.0227 H       1  UNL1        0.0618
     34 H           3.9683   -1.8674    2.1691 H       1  UNL1        0.0624
     35 H           0.9581    2.2014   -0.4041 H       1  UNL1        0.0529
     36 H           1.1972    1.6470   -2.1047 H       1  UNL1        0.0529
     37 H          -3.4859   -2.1412   -0.4969 H       1  UNL1        0.0519
     38 H          -3.4488   -1.2229   -2.0124 H       1  UNL1        0.0519
     39 H          -4.4393    1.1041   -2.0798 H       1  UNL1        0.0622
     40 H          -6.0714    2.6190   -1.0682 H       1  UNL1        0.0646
     41 H          -6.0685    0.4006    2.5179 H       1  UNL1        0.0646
     42 H          -4.4401   -1.1427    1.5600 H       1  UNL1        0.0622
@<TRIPOS>BOND
     1     1     2    2
     2     2     3    1
     3     3     4    1
     4     4     5    1
     5     5     6   ar
     6     6     7   ar
     7     7     8   ar
     8     8     9   ar
     9     9    10   ar
    10    10    11   ar
    11    11    12   ar
    12    12    13   ar
    13     6    14    1
    14    14    15    1
    15    15    16   am
    16    16    17    2
    17    16    18   am
    18    18    19    1
    19    19    20    1
    20    20    21   ar
    21    21    22   ar
    22    22    23   ar
    23    23    24    1
    24    23    25   ar
    25    25    26   ar
    26    18     2   am
    27    26    20   ar
    28    15     3    1
    29    13     5   ar
    30    13     8   ar
    31     3    27    1
    32     4    28    1
    33     4    29    1
    34     7    30    1
    35     9    31    1
    36    10    32    1
    37    11    33    1
    38    12    34    1
    39    14    35    1
    40    14    36    1
    41    19    37    1
    42    19    38    1
    43    21    39    1
    44    22    40    1
    45    25    41    1
    46    26    42    1
@<TRIPOS>MOLECULE
2733484
 46 48 0 0 0
SMALL
GASTEIGER

@<TRIPOS>ATOM
      1 O          -6.9733   -0.0244    0.1279 O.3     1  UNL1       -0.5033
      2 C          -5.5905    0.0307    0.2838 C.ar    1  UNL1        0.1585
      3 C          -4.7894    0.3629   -0.7793 C.ar    1  UNL1       -0.0130
      4 C          -3.3965    0.4199   -0.6251 C.ar    1  UNL1       -0.0390
      5 C          -2.8829    0.1374    0.5974 C.ar    1  UNL1       -0.0233
      6 C          -3.7066   -0.2035    1.6866 C.ar    1  UNL1       -0.0116
      7 C          -5.0605   -0.2563    1.5269 C.ar    1  UNL1        0.1585
      8 O          -5.9101   -0.5980    2.6034 O.3     1  UNL1       -0.5033
      9 C          -1.4612    0.1158    1.0569 C.3     1  UNL1        0.0392
     10 N          -0.4932    0.0005    0.0061 N.am    1  UNL1       -0.3084
     11 C           0.4793   -0.9998    0.2402 C.2     1  UNL1        0.1332
     12 S           0.4355   -1.9206    1.6041 S.2     1  UNL1       -0.0187
     13 N           1.5034   -1.2262   -0.7074 N.am    1  UNL1       -0.3261
     14 C           2.5050   -2.2523   -0.4740 C.3     1  UNL1        0.0147
     15 C           3.4358   -1.9180    0.6504 C.3     1  UNL1       -0.0121
     16 C           4.1939   -0.6691    0.4309 C.ar    1  UNL1       -0.0458
     17 C           5.4477   -0.7184   -0.1858 C.ar    1  UNL1       -0.0571
     18 C           6.1893    0.3988   -0.4128 C.ar    1  UNL1       -0.0431
     19 C           5.7200    1.6438   -0.0358 C.ar    1  UNL1        0.0410
     20 CL          6.7105    3.0774   -0.3460 Cl      1  UNL1       -0.0835
     21 C           4.4957    1.7243    0.5700 C.ar    1  UNL1       -0.0431
     22 C           3.7447    0.5721    0.7978 C.ar    1  UNL1       -0.0571
     23 C          -0.3197    0.7053   -1.2388 C.3     1  UNL1        0.0144
     24 C          -1.4995    1.6086   -1.5353 C.3     1  UNL1       -0.0332
     25 C          -2.7193    0.7886   -1.8846 C.3     1  UNL1       -0.0258
     26 H          -7.5418    0.7822    0.3862 H       1  UNL1        0.2923
     27 H          -5.1817    0.5957   -1.7720 H       1  UNL1        0.0658
     28 H          -3.2360   -0.4173    2.6356 H       1  UNL1        0.0658
     29 H          -6.6524    0.0927    2.7811 H       1  UNL1        0.2923
     30 H          -1.2970    0.9742    1.7431 H       1  UNL1        0.0514
     31 H          -1.3993   -0.8272    1.6761 H       1  UNL1        0.0514
     32 H           1.5462   -0.6551   -1.5745 H       1  UNL1        0.1477
     33 H           1.9885   -3.2135   -0.1963 H       1  UNL1        0.0465
     34 H           3.0736   -2.4194   -1.3934 H       1  UNL1        0.0465
     35 H           4.1827   -2.7644    0.6822 H       1  UNL1        0.0328
     36 H           2.9519   -1.9459    1.6464 H       1  UNL1        0.0328
     37 H           5.8251   -1.6970   -0.4827 H       1  UNL1        0.0621
     38 H           7.1688    0.3344   -0.8964 H       1  UNL1        0.0632
     39 H           4.1184    2.7132    0.8697 H       1  UNL1        0.0632
     40 H           2.7808    0.6874    1.2765 H       1  UNL1        0.0621
     41 H          -0.2234    0.0010   -2.0817 H       1  UNL1        0.0464
     42 H           0.5723    1.3322   -1.1740 H       1  UNL1        0.0464
     43 H          -1.7029    2.2833   -0.6993 H       1  UNL1        0.0283
     44 H          -1.2324    2.2123   -2.4212 H       1  UNL1        0.0283
     45 H          -3.3901    1.3241   -2.6001 H       1  UNL1        0.0314
     46 H          -2.4094   -0.1921   -2.3648 H       1  UNL1        0.0314
@<TRIPOS>BOND
     1     1     2    1
     2     2     3   ar
     3     3     4   ar
     4     4     5   ar
     5     5     6   ar
     6     6     7   ar
     7     7     8    1
     8     5     9    1
     9     9    10    1
    10    10    11    1
    11    11    12    2
    12    11    13    1
    13    13    14    1
    14    14    15    1
    15    15    16    1
    16    16    17   ar
    17    17    18   ar
    18    18    19   ar
    19    19    20    1
    20    19    21   ar
    21    21    22   ar
    22    10    23    1
    23    23    24    1
    24    24    25    1
    25     7     2   ar
    26    22    16   ar
    27    25     4    1
    28     1    26    1
    29     3    27    1
    30     6    28    1
    31     8    29    1
    32     9    30    1
    33     9    31    1
    34    13    32    1
    35    14    33    1
    36    14    34    1
    37    15    35    1
    38    15    36    1
    39    17    37    1
    40    18    38    1
    41    21    39    1
    42    22    40    1
    43    23    41    1
    44    23    42    1
    45    24    43    1
    46    24    44    1
    47    25    45    1
    48    25    46    1
@<TRIPOS>MOLECULE
50333165
 40 43 0 0 0
SMALL
GASTEIGER

@<TRIPOS>ATOM
      1 O           1.3159    2.7189   -0.4070 O.2     1  UNL1       -0.2519
      2 C           0.8990    1.5257   -0.1796 C.2     1  UNL1        0.3111
      3 N          -0.4924    1.2719   -0.0545 N.am    1  UNL1       -0.2685
      4 C          -0.9641   -0.0421    0.1963 C.2     1  UNL1        0.0431
      5 C          -0.1072   -1.0171    0.3105 C.2     1  UNL1       -0.0298
      6 C          -0.6130   -2.4054    0.5854 C.3     1  UNL1       -0.0242
      7 C          -2.0356   -2.6207    0.3515 C.3     1  UNL1       -0.0233
      8 C          -2.9336   -1.4687    0.3750 C.ar    1  UNL1       -0.0377
      9 C          -4.3107   -1.6296    0.4821 C.ar    1  UNL1       -0.0515
     10 C          -5.1412   -0.5422    0.4372 C.ar    1  UNL1        0.0159
     11 C          -4.6751    0.7422    0.2872 C.ar    1  UNL1        0.2738
     12 N          -5.5433    1.8656    0.2403 N.pl3   1  UNL1        0.0796
     13 O          -6.7613    1.6841    0.3375 O.2     1  UNL1        0.0414
     14 O          -5.0885    3.1514    0.0910 O.co2   1  UNL1       -0.5760
     15 C          -3.2921    0.8955    0.1819 C.ar    1  UNL1        0.0247
     16 C          -2.4352   -0.2013    0.2271 C.ar    1  UNL1        0.0058
     17 C           1.3779   -0.8781    0.1856 C.3     1  UNL1        0.0445
     18 N           1.7916    0.4495   -0.0493 N.am    1  UNL1       -0.2477
     19 C           3.1971    0.7398   -0.1652 C.ar    1  UNL1        0.0795
     20 C           3.9844    1.0741    0.9072 C.ar    1  UNL1       -0.0367
     21 C           5.3301    1.3499    0.7817 C.ar    1  UNL1       -0.0598
     22 C           5.9127    1.2890   -0.4661 C.ar    1  UNL1       -0.0582
     23 C           5.1135    0.9493   -1.5564 C.ar    1  UNL1       -0.0183
     24 C           3.7628    0.6742   -1.4196 C.ar    1  UNL1        0.1382
     25 O           3.0360    0.3423   -2.5637 O.3     1  UNL1       -0.5049
     26 H          -1.1438    2.0739   -0.1542 H       1  UNL1        0.1564
     27 H          -0.0177   -3.0728   -0.0906 H       1  UNL1        0.0314
     28 H          -0.3655   -2.6670    1.6602 H       1  UNL1        0.0314
     29 H          -2.4454   -3.4594    0.9939 H       1  UNL1        0.0316
     30 H          -2.1486   -3.0554   -0.7016 H       1  UNL1        0.0316
     31 H          -4.6516   -2.6486    0.5992 H       1  UNL1        0.0623
     32 H          -6.2096   -0.6877    0.5221 H       1  UNL1        0.0685
     33 H          -2.9375    1.8953    0.0682 H       1  UNL1        0.0692
     34 H           1.8669   -1.2042    1.1526 H       1  UNL1        0.0516
     35 H           1.7274   -1.6055   -0.5895 H       1  UNL1        0.0516
     36 H           3.5109    1.1181    1.8851 H       1  UNL1        0.0637
     37 H           5.9672    1.6148    1.6120 H       1  UNL1        0.0618
     38 H           6.9639    1.4917   -0.6484 H       1  UNL1        0.0619
     39 H           5.5722    0.9046   -2.5175 H       1  UNL1        0.0655
     40 H           2.9833   -0.6163   -2.9093 H       1  UNL1        0.2922
@<TRIPOS>UNITY_ATOM_ATTR
12 1
charge 1
14 1
charge -1
@<TRIPOS>BOND
     1     1     2    2
     2     2     3   am
     3     3     4    1
     4     4     5    2
     5     5     6    1
     6     6     7    1
     7     7     8    1
     8     8     9   ar
     9     9    10   ar
    10    10    11   ar
    11    11    12    1
    12    12    13    2
    13    12    14    1
    14    11    15   ar
    15    15    16   ar
    16     5    17    1
    17    17    18    1
    18    18    19    1
    19    19    20   ar
    20    20    21   ar
    21    21    22   ar
    22    22    23   ar
    23    23    24   ar
    24    24    25    1
    25    18     2   am
    26    24    19   ar
    27    16     4    1
    28    16     8   ar
    29     3    26    1
    30     6    27    1
    31     6    28    1
    32     7    29    1
    33     7    30    1
    34     9    31    1
    35    10    32    1
    36    15    33    1
    37    17    34    1
    38    17    35    1
    39    20    36    1
    40    21    37    1
    41    22    38    1
    42    23    39    1
    43    25    40    1
@<TRIPOS>MOLECULE
118719636
 52 54 0 0 0
SMALL
GASTEIGER

@<TRIPOS>ATOM
      1 C           7.7025    0.6136   -1.7798 C.3     1  UNL1        0.0125
      2 C           6.2414    0.8539   -1.5532 C.2     1  UNL1        0.2141
      3 O           5.6726    1.7421   -2.2017 O.2     1  UNL1       -0.2758
      4 N           5.5735    0.0602   -0.6118 N.am    1  UNL1       -0.2857
      5 C           4.2066    0.1553   -0.2795 C.ar    1  UNL1        0.0334
      6 C           3.6794   -0.7140    0.6887 C.ar    1  UNL1       -0.0402
      7 C           2.3570   -0.6586    1.0441 C.ar    1  UNL1       -0.0553
      8 C           1.4629    0.2307    0.4945 C.ar    1  UNL1       -0.0282
      9 C           0.0568    0.2697    0.8943 C.3     1  UNL1        0.0615
     10 N          -0.8550   -0.5182    0.1343 N.pl3   1  UNL1       -0.1801
     11 C          -1.1209   -1.8597    0.5075 C.ar    1  UNL1        0.1591
     12 N          -2.0955   -2.0612    1.4237 N.ar    1  UNL1       -0.2368
     13 C          -2.4280   -3.2937    1.8312 C.ar    1  UNL1        0.0415
     14 C          -1.8051   -4.4323    1.3491 C.ar    1  UNL1        0.0744
     15 C          -2.2203   -5.7582    1.8411 C.3     1  UNL1        0.4189
     16 F          -1.2504   -6.7211    1.6211 F       1  UNL1       -0.1658
     17 F          -3.3975   -6.1871    1.2438 F       1  UNL1       -0.1658
     18 F          -2.4547   -5.7381    3.2037 F       1  UNL1       -0.1658
     19 C          -0.8175   -4.2571    0.4226 C.ar    1  UNL1       -0.0269
     20 C          -0.4774   -2.9639    0.0026 C.ar    1  UNL1        0.0828
     21 CL          0.7634   -2.7358   -1.1952 Cl      1  UNL1       -0.0799
     22 S          -1.7109    0.0895   -1.2415 S.O2    1  UNL1        0.0762
     23 O          -0.7269    0.6079   -2.2560 O.2     1  UNL1       -0.1497
     24 O          -2.6012   -0.9566   -1.8304 O.2     1  UNL1       -0.1497
     25 C          -2.7544    1.4293   -0.7819 C.ar    1  UNL1        0.1088
     26 C          -4.0603    1.2545   -0.3785 C.ar    1  UNL1       -0.0343
     27 C          -4.8519    2.3525   -0.0223 C.ar    1  UNL1       -0.0459
     28 C          -4.3431    3.6144   -0.0687 C.ar    1  UNL1        0.0589
     29 C          -5.1659    4.7704    0.3029 C.2     1  UNL1        0.3368
     30 O          -6.3489    4.6101    0.6682 O.2     1  UNL1       -0.2451
     31 O          -4.6498    6.0475    0.2554 O.3     1  UNL1       -0.4771
     32 C          -3.0376    3.8082   -0.4703 C.ar    1  UNL1       -0.0459
     33 C          -2.2773    2.7231   -0.8153 C.ar    1  UNL1       -0.0343
     34 C           1.9724    1.0873   -0.4563 C.ar    1  UNL1       -0.0553
     35 C           3.3245    1.0462   -0.8342 C.ar    1  UNL1       -0.0402
     36 H           8.0582   -0.2657   -1.2049 H       1  UNL1        0.0323
     37 H           8.3091    1.4942   -1.4884 H       1  UNL1        0.0323
     38 H           7.8734    0.4549   -2.8727 H       1  UNL1        0.0323
     39 H           6.1467   -0.6849   -0.0972 H       1  UNL1        0.1548
     40 H           4.3721   -1.4330    1.1423 H       1  UNL1        0.0636
     41 H           1.9820   -1.3490    1.7996 H       1  UNL1        0.0621
     42 H          -0.2907    1.3261    0.9861 H       1  UNL1        0.0532
     43 H           0.0216   -0.1212    1.9553 H       1  UNL1        0.0532
     44 H          -3.2209   -3.4312    2.5744 H       1  UNL1        0.0836
     45 H          -0.2920   -5.0835    0.0048 H       1  UNL1        0.0639
     46 H          -4.4549    0.2517   -0.3447 H       1  UNL1        0.0637
     47 H          -5.8804    2.1500    0.2895 H       1  UNL1        0.0626
     48 H          -5.2454    6.8675    0.2578 H       1  UNL1        0.2954
     49 H          -2.6806    4.8294   -0.4903 H       1  UNL1        0.0626
     50 H          -1.2575    2.9013   -1.1265 H       1  UNL1        0.0637
     51 H           1.3514    1.8275   -0.9495 H       1  UNL1        0.0621
     52 H           3.6451    1.7551   -1.5901 H       1  UNL1        0.0636
@<TRIPOS>BOND
     1     1     2    1
     2     2     3    2
     3     2     4   am
     4     4     5    1
     5     5     6   ar
     6     6     7   ar
     7     7     8   ar
     8     8     9    1
     9     9    10    1
    10    10    11    1
    11    11    12   ar
    12    12    13   ar
    13    13    14   ar
    14    14    15    1
    15    15    16    1
    16    15    17    1
    17    15    18    1
    18    14    19   ar
    19    19    20   ar
    20    20    21    1
    21    10    22    1
    22    22    23    2
    23    22    24    2
    24    22    25    1
    25    25    26   ar
    26    26    27   ar
    27    27    28   ar
    28    28    29    1
    29    29    30    2
    30    29    31    1
    31    28    32   ar
    32    32    33   ar
    33     8    34   ar
    34    34    35   ar
    35    35     5   ar
    36    20    11   ar
    37    33    25   ar
    38     1    36    1
    39     1    37    1
    40     1    38    1
    41     4    39    1
    42     6    40    1
    43     7    41    1
    44     9    42    1
    45     9    43    1
    46    13    44    1
    47    19    45    1
    48    26    46    1
    49    27    47    1
    50    31    48    1
    51    32    49    1
    52    33    50    1
    53    34    51    1
    54    35    52    1
@<TRIPOS>MOLECULE
CHEMBL4550460
 57 58 0 0 0
SMALL
GASTEIGER

@<TRIPOS>ATOM
      1 C          -4.3233   -2.7946    1.0399 C.3     1  UNL1       -0.0466
      2 C          -2.8703   -2.4990    0.8752 C.2     1  UNL1       -0.0875
      3 C          -2.4283   -1.4156    0.1886 C.2     1  UNL1       -0.0688
      4 C          -3.5311   -0.5782   -0.3667 C.3     1  UNL1       -0.0432
      5 C          -0.9981   -1.1588    0.0367 C.3     1  UNL1        0.0130
      6 C          -0.4910   -1.4624   -1.3368 C.2     1  UNL1       -0.0683
      7 C          -1.3360   -1.7526   -2.5021 C.3     1  UNL1       -0.0432
      8 C           0.8343   -1.4631   -1.4609 C.2     1  UNL1       -0.0810
      9 C           1.5580   -1.1521   -0.1730 C.3     1  UNL1       -0.0179
     10 C           3.0273   -1.1271   -0.5472 C.3     1  UNL1       -0.0438
     11 C           3.8447   -0.4423    0.5378 C.3     1  UNL1       -0.0426
     12 C           5.2859   -0.4275    0.1052 C.3     1  UNL1       -0.0624
     13 C           3.3067    0.9501    0.6350 C.3     1  UNL1       -0.0372
     14 C           1.8859    0.8822    1.2340 C.3     1  UNL1        0.0608
     15 C           1.5332    2.3234    1.3732 C.2     1  UNL1        0.3081
     16 O           1.2970    2.8463    2.4857 O.2     1  UNL1       -0.2507
     17 O           1.4530    3.1473    0.2631 O.3     1  UNL1       -0.4804
     18 C           1.0414    0.1976    0.2160 C.3     1  UNL1       -0.0089
     19 C          -0.4389    0.1032    0.5838 C.3     1  UNL1        0.0405
     20 C          -0.4603   -0.0445    2.1068 C.3     1  UNL1       -0.0517
     21 C          -1.1412    1.3552    0.2337 C.2     1  UNL1        0.1425
     22 O          -1.6900    1.9978    1.1208 O.2     1  UNL1       -0.2967
     23 C          -1.2491    1.9296   -1.1171 C.3     1  UNL1        0.0296
     24 C          -2.0596    3.2078   -1.1434 C.3     1  UNL1        0.0509
     25 O          -1.4246    4.1490   -0.3025 O.3     1  UNL1       -0.3946
     26 H          -4.8181   -3.0592    0.0831 H       1  UNL1        0.0272
     27 H          -4.8714   -1.9609    1.5242 H       1  UNL1        0.0272
     28 H          -4.4176   -3.6968    1.6777 H       1  UNL1        0.0272
     29 H          -2.1248   -3.1643    1.3134 H       1  UNL1        0.0569
     30 H          -4.5412   -1.0779   -0.2745 H       1  UNL1        0.0275
     31 H          -3.4449   -0.4255   -1.4599 H       1  UNL1        0.0275
     32 H          -3.6470    0.3394    0.2258 H       1  UNL1        0.0275
     33 H          -0.4948   -1.9790    0.6612 H       1  UNL1        0.0400
     34 H          -0.7998   -2.4157   -3.2435 H       1  UNL1        0.0275
     35 H          -1.5976   -0.8184   -3.0359 H       1  UNL1        0.0275
     36 H          -2.2412   -2.3449   -2.2304 H       1  UNL1        0.0275
     37 H           1.3033   -1.6665   -2.3901 H       1  UNL1        0.0575
     38 H           1.4752   -1.9358    0.5792 H       1  UNL1        0.0346
     39 H           3.1915   -0.6292   -1.5011 H       1  UNL1        0.0274
     40 H           3.3762   -2.1754   -0.5961 H       1  UNL1        0.0274
     41 H           3.6882   -0.9355    1.5167 H       1  UNL1        0.0299
     42 H           5.3567   -0.6016   -0.9869 H       1  UNL1        0.0232
     43 H           5.7738    0.5312    0.3542 H       1  UNL1        0.0232
     44 H           5.7906   -1.2928    0.6056 H       1  UNL1        0.0232
     45 H           3.9407    1.6271    1.2346 H       1  UNL1        0.0276
     46 H           3.2258    1.3575   -0.3955 H       1  UNL1        0.0276
     47 H           2.0080    0.3804    2.1900 H       1  UNL1        0.0417
     48 H           1.5550    4.1440    0.4032 H       1  UNL1        0.2951
     49 H           1.1505    0.8124   -0.7297 H       1  UNL1        0.0324
     50 H          -0.5786    0.8960    2.6384 H       1  UNL1        0.0239
     51 H           0.3358   -0.7170    2.4700 H       1  UNL1        0.0239
     52 H          -1.4175   -0.6145    2.3265 H       1  UNL1        0.0239
     53 H          -1.7642    1.2036   -1.7692 H       1  UNL1        0.0364
     54 H          -0.2728    2.1124   -1.6063 H       1  UNL1        0.0364
     55 H          -2.0287    3.6584   -2.1536 H       1  UNL1        0.0561
     56 H          -3.0693    3.0814   -0.7486 H       1  UNL1        0.0561
     57 H          -0.6676    4.5956   -0.7677 H       1  UNL1        0.2094
@<TRIPOS>BOND
     1     1     2    1
     2     2     3    2
     3     3     4    1
     4     3     5    1
     5     5     6    1
     6     6     7    1
     7     6     8    2
     8     8     9    1
     9     9    10    1
    10    10    11    1
    11    11    12    1
    12    11    13    1
    13    13    14    1
    14    14    15    1
    15    15    16    2
    16    15    17    1
    17    14    18    1
    18    18    19    1
    19    19    20    1
    20    19    21    1
    21    21    22    2
    22    21    23    1
    23    23    24    1
    24    24    25    1
    25    19     5    1
    26    18     9    1
    27     1    26    1
    28     1    27    1
    29     1    28    1
    30     2    29    1
    31     4    30    1
    32     4    31    1
    33     4    32    1
    34     5    33    1
    35     7    34    1
    36     7    35    1
    37     7    36    1
    38     8    37    1
    39     9    38    1
    40    10    39    1
    41    10    40    1
    42    11    41    1
    43    12    42    1
    44    12    43    1
    45    12    44    1
    46    13    45    1
    47    13    46    1
    48    14    47    1
    49    17    48    1
    50    18    49    1
    51    20    50    1
    52    20    51    1
    53    20    52    1
    54    23    53    1
    55    23    54    1
    56    24    55    1
    57    24    56    1
    58    25    57    1
@<TRIPOS>MOLECULE
50543033
 52 54 0 0 0
SMALL
GASTEIGER

@<TRIPOS>ATOM
      1 C           2.3312    1.2106    2.6494 C.3     1  UNL1       -0.0633
      2 C           1.4939    0.0144    2.8352 C.3     1  UNL1       -0.0329
      3 C           1.1479   -0.8026    1.5960 C.3     1  UNL1        0.0523
      4 C           2.2976   -1.3221    0.9078 C.ar    1  UNL1       -0.0270
      5 C           2.2658   -1.7186   -0.4164 C.ar    1  UNL1       -0.0568
      6 C           3.3628   -2.2279   -1.0648 C.ar    1  UNL1       -0.0614
      7 C           4.5630   -2.3762   -0.4405 C.ar    1  UNL1       -0.0617
      8 C           4.6460   -1.9973    0.8717 C.ar    1  UNL1       -0.0614
      9 C           3.5478   -1.4883    1.5194 C.ar    1  UNL1       -0.0568
     10 N           0.1759   -0.0727    0.7461 N.am    1  UNL1       -0.2749
     11 C           0.7180    0.9002   -0.1123 C.2     1  UNL1        0.2480
     12 O           1.9710    1.1471   -0.1578 O.2     1  UNL1       -0.2699
     13 C          -0.1166    1.7057   -1.0296 C.ar    1  UNL1        0.0369
     14 C          -0.5447    1.1622   -2.2191 C.ar    1  UNL1       -0.0496
     15 C          -1.2930    1.9251   -3.0741 C.ar    1  UNL1       -0.0610
     16 C          -1.6483    3.2297   -2.8065 C.ar    1  UNL1       -0.0617
     17 C          -1.2047    3.7406   -1.6115 C.ar    1  UNL1       -0.0610
     18 C          -0.4564    3.0013   -0.7398 C.ar    1  UNL1       -0.0496
     19 C          -1.2186   -0.3610    0.9185 C.3     1  UNL1        0.1281
     20 C          -1.8651    0.7323    1.6836 C.2     1  UNL1        0.2356
     21 N          -3.2511    0.6393    2.0717 N.am    1  UNL1       -0.3275
     22 O          -1.2955    1.7908    2.0522 O.2     1  UNL1       -0.2736
     23 C          -1.9883   -0.8335   -0.2139 C.ar    1  UNL1       -0.0182
     24 C          -1.5769   -1.9938   -0.8588 C.ar    1  UNL1       -0.0563
     25 C          -2.3170   -2.4298   -1.9302 C.ar    1  UNL1       -0.0614
     26 C          -3.4396   -1.7551   -2.3728 C.ar    1  UNL1       -0.0617
     27 C          -3.8521   -0.5983   -1.7317 C.ar    1  UNL1       -0.0614
     28 C          -3.1195   -0.1510   -0.6579 C.ar    1  UNL1       -0.0563
     29 H           2.6359    1.5364    3.7124 H       1  UNL1        0.0230
     30 H           3.2927    1.0880    2.1454 H       1  UNL1        0.0230
     31 H           1.7554    2.1309    2.3235 H       1  UNL1        0.0230
     32 H           0.5745    0.3180    3.3820 H       1  UNL1        0.0284
     33 H           2.0113   -0.6764    3.5574 H       1  UNL1        0.0284
     34 H           0.5419   -1.6366    2.0520 H       1  UNL1        0.0551
     35 H           1.3710   -1.6348   -1.0127 H       1  UNL1        0.0621
     36 H           3.3222   -2.5381   -2.1162 H       1  UNL1        0.0618
     37 H           5.4118   -2.7706   -0.9431 H       1  UNL1        0.0618
     38 H           5.6021   -2.1151    1.3675 H       1  UNL1        0.0618
     39 H           3.6760   -1.2180    2.5400 H       1  UNL1        0.0621
     40 H          -0.2954    0.1401   -2.4814 H       1  UNL1        0.0625
     41 H          -1.6557    1.5358   -4.0323 H       1  UNL1        0.0618
     42 H          -2.2411    3.8321   -3.4841 H       1  UNL1        0.0618
     43 H          -1.4332    4.7595   -1.3094 H       1  UNL1        0.0618
     44 H          -0.1041    3.4210    0.2110 H       1  UNL1        0.0625
     45 H          -1.3003   -1.2503    1.6808 H       1  UNL1        0.0648
     46 H          -3.8463    1.5045    2.0755 H       1  UNL1        0.1450
     47 H          -3.7138   -0.2297    2.3523 H       1  UNL1        0.1450
     48 H          -0.6942   -2.5504   -0.5098 H       1  UNL1        0.0621
     49 H          -2.0190   -3.3375   -2.4567 H       1  UNL1        0.0618
     50 H          -4.0148   -2.1015   -3.2126 H       1  UNL1        0.0618
     51 H          -4.7296   -0.0456   -2.0560 H       1  UNL1        0.0618
     52 H          -3.4807    0.7674   -0.1995 H       1  UNL1        0.0621
@<TRIPOS>BOND
     1     1     2    1
     2     2     3    1
     3     3     4    1
     4     4     5   ar
     5     5     6   ar
     6     6     7   ar
     7     7     8   ar
     8     8     9   ar
     9     3    10    1
    10    10    11   am
    11    11    12    2
    12    11    13    1
    13    13    14   ar
    14    14    15   ar
    15    15    16   ar
    16    16    17   ar
    17    17    18   ar
    18    10    19    1
    19    19    20    1
    20    20    21   am
    21    20    22    2
    22    19    23    1
    23    23    24   ar
    24    24    25   ar
    25    25    26   ar
    26    26    27   ar
    27    27    28   ar
    28     9     4   ar
    29    18    13   ar
    30    28    23   ar
    31     1    29    1
    32     1    30    1
    33     1    31    1
    34     2    32    1
    35     2    33    1
    36     3    34    1
    37     5    35    1
    38     6    36    1
    39     7    37    1
    40     8    38    1
    41     9    39    1
    42    14    40    1
    43    15    41    1
    44    16    42    1
    45    17    43    1
    46    18    44    1
    47    19    45    1
    48    21    46    1
    49    21    47    1
    50    24    48    1
    51    25    49    1
    52    26    50    1
    53    27    51    1
    54    28    52    1
@<TRIPOS>MOLECULE
50543021
 53 55 0 0 0
SMALL
GASTEIGER

@<TRIPOS>ATOM
      1 C           6.2399   -2.0959   -0.7882 C.3     1  UNL1        0.0788
      2 O           5.2815   -1.1673   -0.3268 O.3     1  UNL1       -0.4951
      3 C           4.0978   -1.6482    0.1938 C.ar    1  UNL1        0.1204
      4 C           3.7876   -2.9832    0.2935 C.ar    1  UNL1       -0.0199
      5 C           2.5846   -3.4006    0.8253 C.ar    1  UNL1       -0.0580
      6 C           1.6549   -2.4904    1.2738 C.ar    1  UNL1       -0.0568
      7 C           1.9360   -1.1512    1.1865 C.ar    1  UNL1       -0.0266
      8 C           0.9944   -0.1176    1.6305 C.3     1  UNL1        0.0409
      9 N           0.1597    0.4202    0.5874 N.am    1  UNL1       -0.2813
     10 C          -1.0931   -0.0795    0.1882 C.2     1  UNL1        0.2210
     11 O          -1.6958    0.5506   -0.7533 O.2     1  UNL1       -0.2752
     12 C          -1.7508   -1.2506    0.7642 C.3     1  UNL1        0.0493
     13 C          -3.1064   -1.4503    0.1494 C.ar    1  UNL1       -0.0386
     14 C          -4.2530   -0.8892    0.6686 C.ar    1  UNL1       -0.0581
     15 C          -5.4910   -1.0872    0.0852 C.ar    1  UNL1       -0.0615
     16 C          -5.6286   -1.8581   -1.0454 C.ar    1  UNL1       -0.0617
     17 C          -4.4917   -2.4251   -1.5754 C.ar    1  UNL1       -0.0615
     18 C          -3.2450   -2.2213   -0.9816 C.ar    1  UNL1       -0.0581
     19 C           0.7196    1.6210   -0.0946 C.3     1  UNL1        0.1275
     20 C           0.9698    1.2918   -1.5074 C.2     1  UNL1        0.2356
     21 N           1.6099    2.1781   -2.3953 N.am    1  UNL1       -0.3275
     22 O           0.6042    0.1778   -1.9507 O.2     1  UNL1       -0.2736
     23 C          -0.2298    2.7380    0.1190 C.ar    1  UNL1       -0.0182
     24 C          -0.6278    3.5385   -0.9116 C.ar    1  UNL1       -0.0563
     25 C          -1.5243    4.5939   -0.6975 C.ar    1  UNL1       -0.0614
     26 C          -2.0076    4.8227    0.5699 C.ar    1  UNL1       -0.0617
     27 C          -1.6005    4.0068    1.6134 C.ar    1  UNL1       -0.0614
     28 C          -0.7199    2.9698    1.4050 C.ar    1  UNL1       -0.0563
     29 C           3.1595   -0.7482    0.6456 C.ar    1  UNL1       -0.0153
     30 H           6.3781   -2.9612   -0.1276 H       1  UNL1        0.0660
     31 H           7.2189   -1.5514   -0.9278 H       1  UNL1        0.0660
     32 H           5.9004   -2.4490   -1.7975 H       1  UNL1        0.0660
     33 H           4.4896   -3.7223   -0.0470 H       1  UNL1        0.0654
     34 H           2.3983   -4.4611    0.8773 H       1  UNL1        0.0619
     35 H           0.7124   -2.8298    1.7070 H       1  UNL1        0.0621
     36 H           0.4037   -0.5575    2.4626 H       1  UNL1        0.0514
     37 H           1.5837    0.7069    2.1307 H       1  UNL1        0.0514
     38 H          -1.1252   -2.1419    0.4910 H       1  UNL1        0.0407
     39 H          -1.8730   -1.2616    1.8466 H       1  UNL1        0.0407
     40 H          -4.1425   -0.2768    1.5669 H       1  UNL1        0.0620
     41 H          -6.3517   -0.6252    0.5331 H       1  UNL1        0.0618
     42 H          -6.6120   -2.0200   -1.5153 H       1  UNL1        0.0618
     43 H          -4.5747   -3.0381   -2.4680 H       1  UNL1        0.0618
     44 H          -2.3789   -2.6833   -1.4283 H       1  UNL1        0.0620
     45 H           1.6944    1.9069    0.3422 H       1  UNL1        0.0648
     46 H           1.3108    2.2613   -3.4082 H       1  UNL1        0.1450
     47 H           2.4108    2.8084   -2.1323 H       1  UNL1        0.1450
     48 H          -0.2940    3.4201   -1.9398 H       1  UNL1        0.0621
     49 H          -1.8317    5.2214   -1.5243 H       1  UNL1        0.0618
     50 H          -2.7076    5.6352    0.7763 H       1  UNL1        0.0618
     51 H          -1.9490    4.1406    2.6325 H       1  UNL1        0.0618
     52 H          -0.3882    2.3212    2.2006 H       1  UNL1        0.0621
     53 H           3.3930    0.3118    0.5778 H       1  UNL1        0.0657
@<TRIPOS>BOND
     1     1     2    1
     2     2     3    1
     3     3     4   ar
     4     4     5   ar
     5     5     6   ar
     6     6     7   ar
     7     7     8    1
     8     8     9    1
     9     9    10   am
    10    10    11    2
    11    10    12    1
    12    12    13    1
    13    13    14   ar
    14    14    15   ar
    15    15    16   ar
    16    16    17   ar
    17    17    18   ar
    18     9    19    1
    19    19    20    1
    20    20    21   am
    21    20    22    2
    22    19    23    1
    23    23    24   ar
    24    24    25   ar
    25    25    26   ar
    26    26    27   ar
    27    27    28   ar
    28     7    29   ar
    29    29     3   ar
    30    18    13   ar
    31    28    23   ar
    32     1    30    1
    33     1    31    1
    34     1    32    1
    35     4    33    1
    36     5    34    1
    37     6    35    1
    38     8    36    1
    39     8    37    1
    40    12    38    1
    41    12    39    1
    42    14    40    1
    43    15    41    1
    44    16    42    1
    45    17    43    1
    46    18    44    1
    47    19    45    1
    48    21    46    1
    49    21    47    1
    50    24    48    1
    51    25    49    1
    52    26    50    1
    53    27    51    1
    54    28    52    1
    55    29    53    1
@<TRIPOS>MOLECULE
51027970
 49 51 0 0 0
SMALL
GASTEIGER

@<TRIPOS>ATOM
      1 C           5.6662    0.9303   -2.9668 C.3     1  UNL1       -0.0396
      2 C           5.0489    0.5363   -1.6873 C.ar    1  UNL1       -0.0470
      3 C           5.5897    0.9495   -0.4977 C.ar    1  UNL1       -0.0583
      4 C           5.0251    0.5906    0.7019 C.ar    1  UNL1       -0.0546
      5 C           3.8745   -0.2140    0.6875 C.ar    1  UNL1       -0.0024
      6 C           3.2395   -0.6204    1.9470 C.3     1  UNL1       -0.0180
      7 C           3.7706   -1.9141    2.5068 C.3     1  UNL1       -0.0585
      8 C           3.4972    0.4666    2.9833 C.3     1  UNL1       -0.0585
      9 C           3.3209   -0.6362   -0.5008 C.ar    1  UNL1        0.1369
     10 O           2.1868   -1.4278   -0.4607 O.3     1  UNL1       -0.4110
     11 C           0.9025   -0.9344   -0.4627 C.2     1  UNL1        0.4099
     12 O           0.7409    0.3064   -0.5033 O.2     1  UNL1       -0.2257
     13 N          -0.2199   -1.7805   -0.4209 N.am    1  UNL1       -0.2508
     14 C          -1.5151   -1.2011   -0.4260 C.ar    1  UNL1        0.0365
     15 C          -2.1907   -0.9433   -1.5924 C.ar    1  UNL1       -0.0398
     16 C          -3.4615   -0.3751   -1.5989 C.ar    1  UNL1       -0.0523
     17 C          -4.0702   -0.0571   -0.3973 C.ar    1  UNL1       -0.0178
     18 C          -5.4007    0.5393   -0.3569 C.ar    1  UNL1       -0.0179
     19 C          -6.2535    0.2889    0.6983 C.ar    1  UNL1       -0.0540
     20 C          -7.5210    0.8666    0.7207 C.ar    1  UNL1       -0.0612
     21 C          -7.9573    1.6933   -0.2931 C.ar    1  UNL1       -0.0617
     22 C          -7.1051    1.9421   -1.3451 C.ar    1  UNL1       -0.0612
     23 C          -5.8459    1.3640   -1.3606 C.ar    1  UNL1       -0.0540
     24 C          -3.4086   -0.3080    0.7843 C.ar    1  UNL1       -0.0523
     25 C          -2.1343   -0.8788    0.7621 C.ar    1  UNL1       -0.0398
     26 C           3.9017   -0.2658   -1.6984 C.ar    1  UNL1       -0.0160
     27 H           6.7002    0.4949   -3.0042 H       1  UNL1        0.0278
     28 H           5.0346    0.5761   -3.8051 H       1  UNL1        0.0278
     29 H           5.7347    2.0516   -2.9949 H       1  UNL1        0.0278
     30 H           6.4650    1.5611   -0.5033 H       1  UNL1        0.0620
     31 H           5.4576    0.9205    1.6368 H       1  UNL1        0.0622
     32 H           2.1438   -0.7366    1.8280 H       1  UNL1        0.0345
     33 H           4.8650   -1.8632    2.7094 H       1  UNL1        0.0235
     34 H           3.2979   -2.0249    3.5257 H       1  UNL1        0.0235
     35 H           3.4911   -2.7300    1.8330 H       1  UNL1        0.0235
     36 H           2.6717    0.4477    3.7227 H       1  UNL1        0.0235
     37 H           4.4422    0.2584    3.5245 H       1  UNL1        0.0235
     38 H           3.5985    1.4504    2.4772 H       1  UNL1        0.0235
     39 H          -0.1080   -2.8368   -0.3859 H       1  UNL1        0.1582
     40 H          -1.7208   -1.1886   -2.5194 H       1  UNL1        0.0636
     41 H          -3.9742   -0.1814   -2.5338 H       1  UNL1        0.0624
     42 H          -5.9244   -0.3612    1.5059 H       1  UNL1        0.0624
     43 H          -8.1896    0.6590    1.5661 H       1  UNL1        0.0618
     44 H          -8.9533    2.1537   -0.2859 H       1  UNL1        0.0618
     45 H          -7.4254    2.5888   -2.1541 H       1  UNL1        0.0618
     46 H          -5.1686    1.5514   -2.1795 H       1  UNL1        0.0624
     47 H          -3.9053   -0.0504    1.7098 H       1  UNL1        0.0624
     48 H          -1.6676   -1.0506    1.7326 H       1  UNL1        0.0636
     49 H           3.4539   -0.6065   -2.6284 H       1  UNL1        0.0657
@<TRIPOS>BOND
     1     1     2    1
     2     2     3   ar
     3     3     4   ar
     4     4     5   ar
     5     5     6    1
     6     6     7    1
     7     6     8    1
     8     5     9   ar
     9     9    10    1
    10    10    11    1
    11    11    12    2
    12    11    13   am
    13    13    14    1
    14    14    15   ar
    15    15    16   ar
    16    16    17   ar
    17    17    18    1
    18    18    19   ar
    19    19    20   ar
    20    20    21   ar
    21    21    22   ar
    22    22    23   ar
    23    17    24   ar
    24    24    25   ar
    25     9    26   ar
    26    26     2   ar
    27    25    14   ar
    28    23    18   ar
    29     1    27    1
    30     1    28    1
    31     1    29    1
    32     3    30    1
    33     4    31    1
    34     6    32    1
    35     7    33    1
    36     7    34    1
    37     7    35    1
    38     8    36    1
    39     8    37    1
    40     8    38    1
    41    13    39    1
    42    15    40    1
    43    16    41    1
    44    19    42    1
    45    20    43    1
    46    21    44    1
    47    22    45    1
    48    23    46    1
    49    24    47    1
    50    25    48    1
    51    26    49    1
@<TRIPOS>MOLECULE
CHEMBL4754910
 49 52 0 0 0
SMALL
GASTEIGER

@<TRIPOS>ATOM
      1 N           0.9848   -1.5928    3.0281 N.am    1  UNL1       -0.3275
      2 C           0.3310   -0.6484    2.1837 C.2     1  UNL1        0.2356
      3 O          -0.2491    0.3640    2.6364 O.2     1  UNL1       -0.2736
      4 C           0.3437   -0.8720    0.7274 C.3     1  UNL1        0.1281
      5 C          -0.4159   -2.0911    0.3852 C.ar    1  UNL1       -0.0182
      6 C          -0.9903   -2.9128    1.3161 C.ar    1  UNL1       -0.0563
      7 C          -1.6895   -4.0674    0.9202 C.ar    1  UNL1       -0.0614
      8 C          -1.7981   -4.3745   -0.4109 C.ar    1  UNL1       -0.0617
      9 C          -1.2273   -3.5601   -1.3579 C.ar    1  UNL1       -0.0614
     10 C          -0.5478   -2.4349   -0.9435 C.ar    1  UNL1       -0.0563
     11 N          -0.0875    0.2830    0.0132 N.am    1  UNL1       -0.2748
     12 C           0.8480    0.9166   -0.8358 C.2     1  UNL1        0.2480
     13 O           0.5267    1.9560   -1.4991 O.2     1  UNL1       -0.2699
     14 C           2.2234    0.4681   -1.0369 C.ar    1  UNL1        0.0369
     15 C           2.6274   -0.0853   -2.2532 C.ar    1  UNL1       -0.0496
     16 C           3.9405   -0.5073   -2.4370 C.ar    1  UNL1       -0.0610
     17 C           4.8661   -0.3910   -1.4332 C.ar    1  UNL1       -0.0617
     18 C           4.4953    0.1527   -0.2188 C.ar    1  UNL1       -0.0610
     19 C           3.2018    0.5614   -0.0571 C.ar    1  UNL1       -0.0496
     20 C          -1.4053    0.8200    0.1025 C.3     1  UNL1        0.0546
     21 C          -2.1833    0.7525   -1.1952 C.3     1  UNL1       -0.0246
     22 C          -3.4200    1.5606   -0.7429 C.3     1  UNL1       -0.0081
     23 C          -2.6882    2.7075   -0.0750 C.ar    1  UNL1        0.0463
     24 N          -3.0058    4.0012    0.0872 N.ar    1  UNL1       -0.2596
     25 C          -2.1904    4.8596    0.7113 C.ar    1  UNL1        0.0279
     26 C          -0.9579    4.4672    1.2342 C.ar    1  UNL1       -0.0433
     27 C          -0.6475    3.1368    1.0594 C.ar    1  UNL1       -0.0537
     28 C          -1.4864    2.2468    0.4156 C.ar    1  UNL1       -0.0057
     29 H           1.8767   -2.0034    2.6811 H       1  UNL1        0.1450
     30 H           0.5882   -1.8581    3.9472 H       1  UNL1        0.1450
     31 H           1.4356   -1.0549    0.4713 H       1  UNL1        0.0648
     32 H          -0.9398   -2.7151    2.3585 H       1  UNL1        0.0621
     33 H          -2.1254   -4.6864    1.7119 H       1  UNL1        0.0618
     34 H          -2.3477   -5.2800   -0.7041 H       1  UNL1        0.0618
     35 H          -1.3194   -3.8168   -2.4246 H       1  UNL1        0.0618
     36 H          -0.1043   -1.8071   -1.7190 H       1  UNL1        0.0621
     37 H           1.9068   -0.1820   -3.0509 H       1  UNL1        0.0625
     38 H           4.2741   -0.9456   -3.3905 H       1  UNL1        0.0618
     39 H           5.9058   -0.7147   -1.5521 H       1  UNL1        0.0618
     40 H           5.1689    0.2717    0.6062 H       1  UNL1        0.0618
     41 H           2.8798    0.9973    0.8979 H       1  UNL1        0.0625
     42 H          -1.9915    0.2173    0.8247 H       1  UNL1        0.0551
     43 H          -2.5608   -0.2293   -1.4555 H       1  UNL1        0.0290
     44 H          -1.6855    1.3165   -2.0108 H       1  UNL1        0.0290
     45 H          -4.0052    1.8950   -1.5960 H       1  UNL1        0.0329
     46 H          -3.9394    0.9865    0.0256 H       1  UNL1        0.0329
     47 H          -2.4324    5.9138    0.8523 H       1  UNL1        0.0829
     48 H          -0.3059    5.1697    1.7358 H       1  UNL1        0.0633
     49 H           0.3231    2.8089    1.4666 H       1  UNL1        0.0622
@<TRIPOS>BOND
     1     1     2   am
     2     2     3    2
     3     2     4    1
     4     4     5    1
     5     5     6   ar
     6     6     7   ar
     7     7     8   ar
     8     8     9   ar
     9     9    10   ar
    10     4    11    1
    11    11    12   am
    12    12    13    2
    13    12    14    1
    14    14    15   ar
    15    15    16   ar
    16    16    17   ar
    17    17    18   ar
    18    18    19   ar
    19    11    20    1
    20    20    21    1
    21    21    22    1
    22    22    23    1
    23    23    24   ar
    24    24    25   ar
    25    25    26   ar
    26    26    27   ar
    27    27    28   ar
    28    10     5   ar
    29    19    14   ar
    30    28    20    1
    31    28    23   ar
    32     1    29    1
    33     1    30    1
    34     4    31    1
    35     6    32    1
    36     7    33    1
    37     8    34    1
    38     9    35    1
    39    10    36    1
    40    15    37    1
    41    16    38    1
    42    17    39    1
    43    18    40    1
    44    19    41    1
    45    20    42    1
    46    21    43    1
    47    21    44    1
    48    22    45    1
    49    22    46    1
    50    25    47    1
    51    26    48    1
    52    27    49    1
@<TRIPOS>MOLECULE
51324148
 78 83 0 0 0
SMALL
GASTEIGER

@<TRIPOS>ATOM
      1 C           8.0961    0.5059    1.3782 C.3     1  UNL1        0.0790
      2 O           7.4663   -0.4605    0.5564 O.3     1  UNL1       -0.4914
      3 C           6.1110   -0.3365    0.3095 C.ar    1  UNL1        0.1618
      4 C           5.3690    0.6949    0.8409 C.ar    1  UNL1       -0.0127
      5 C           4.0273    0.7728    0.5643 C.ar    1  UNL1       -0.0369
      6 C           3.4139   -0.1661   -0.2381 C.ar    1  UNL1       -0.0156
      7 C           4.1423   -1.2013   -0.7749 C.ar    1  UNL1       -0.0108
      8 C           5.4917   -1.2919   -0.5046 C.ar    1  UNL1        0.1618
      9 O           6.2807   -2.3002   -1.0058 O.3     1  UNL1       -0.4914
     10 C           5.7821   -3.3272   -1.8348 C.3     1  UNL1        0.0790
     11 C           1.9207    0.0080   -0.5135 C.3     1  UNL1        0.0796
     12 C           1.8160    0.9676   -1.6060 C.ar    1  UNL1       -0.0042
     13 C           2.6789    0.8445   -2.7028 C.ar    1  UNL1       -0.0551
     14 C           2.6318    1.7161   -3.7602 C.ar    1  UNL1       -0.0613
     15 C           1.7315    2.7444   -3.7781 C.ar    1  UNL1       -0.0604
     16 C           0.8780    2.8913   -2.7262 C.ar    1  UNL1       -0.0431
     17 C           0.9360    1.9994   -1.6585 C.ar    1  UNL1        0.0462
     18 CL         -0.1891    2.2811   -0.3749 Cl      1  UNL1       -0.0832
     19 N           1.2700    0.2851    0.7025 N.am    1  UNL1       -0.2740
     20 C          -0.0106   -0.1316    1.1653 C.2     1  UNL1        0.3063
     21 O          -0.2891    0.3053    2.3656 O.2     1  UNL1       -0.2524
     22 N          -1.0216   -0.8998    0.6046 N.am    1  UNL1       -0.2740
     23 C          -0.8746   -1.5219   -0.6700 C.3     1  UNL1        0.0210
     24 C          -2.0610   -2.2869   -1.1537 C.3     1  UNL1       -0.0113
     25 C          -3.3140   -1.5923   -0.8715 C.ar    1  UNL1       -0.0369
     26 C          -4.3393   -1.5477   -1.7833 C.ar    1  UNL1       -0.0127
     27 C          -5.5053   -0.9086   -1.4423 C.ar    1  UNL1        0.1618
     28 O          -6.5475   -0.8534   -2.3463 O.3     1  UNL1       -0.4914
     29 C          -6.4020   -1.4582   -3.6150 C.3     1  UNL1        0.0790
     30 C          -5.6396   -0.3187   -0.1940 C.ar    1  UNL1        0.1618
     31 O          -6.8250    0.3128    0.1126 O.3     1  UNL1       -0.4914
     32 C          -7.0389    0.9354    1.3615 C.3     1  UNL1        0.0790
     33 C          -4.5898   -0.3682    0.7290 C.ar    1  UNL1       -0.0108
     34 C          -3.4373   -1.0070    0.3736 C.ar    1  UNL1       -0.0156
     35 C          -2.2854   -1.0641    1.3280 C.3     1  UNL1        0.0796
     36 C          -2.5090   -0.0295    2.3640 C.ar    1  UNL1       -0.0042
     37 C          -2.7300    1.2904    2.0594 C.ar    1  UNL1       -0.0551
     38 C          -2.9507    2.2204    3.0433 C.ar    1  UNL1       -0.0613
     39 C          -2.9570    1.8554    4.3734 C.ar    1  UNL1       -0.0604
     40 C          -2.7394    0.5504    4.6936 C.ar    1  UNL1       -0.0431
     41 C          -2.5163   -0.3903    3.6969 C.ar    1  UNL1        0.0462
     42 CL         -2.2438   -2.0554    4.2223 Cl      1  UNL1       -0.0832
     43 C           1.9618    1.1395    1.7014 C.3     1  UNL1        0.0210
     44 C           3.1396    1.8620    1.1414 C.3     1  UNL1       -0.0113
     45 H           8.0344    1.5255    0.9481 H       1  UNL1        0.0660
     46 H           9.1871    0.2559    1.4252 H       1  UNL1        0.0660
     47 H           7.6540    0.5486    2.3916 H       1  UNL1        0.0660
     48 H           5.8539    1.4372    1.4751 H       1  UNL1        0.0658
     49 H           3.6526   -1.9346   -1.4045 H       1  UNL1        0.0659
     50 H           4.7405   -3.6276   -1.5943 H       1  UNL1        0.0660
     51 H           6.3814   -4.2675   -1.6273 H       1  UNL1        0.0660
     52 H           5.9464   -3.1352   -2.9151 H       1  UNL1        0.0660
     53 H           1.6821   -1.0213   -0.9524 H       1  UNL1        0.0602
     54 H           3.4072    0.0523   -2.7415 H       1  UNL1        0.0621
     55 H           3.2938    1.6395   -4.6259 H       1  UNL1        0.0618
     56 H           1.6741    3.4593   -4.6148 H       1  UNL1        0.0618
     57 H           0.1632    3.6913   -2.7187 H       1  UNL1        0.0632
     58 H          -0.5544   -0.7467   -1.4131 H       1  UNL1        0.0468
     59 H           0.0010   -2.2593   -0.5914 H       1  UNL1        0.0468
     60 H          -1.8943   -2.4367   -2.2610 H       1  UNL1        0.0328
     61 H          -2.0079   -3.2946   -0.6546 H       1  UNL1        0.0328
     62 H          -4.2542   -2.0038   -2.7692 H       1  UNL1        0.0658
     63 H          -7.3836   -1.3959   -4.1238 H       1  UNL1        0.0660
     64 H          -5.6380   -0.8638   -4.1704 H       1  UNL1        0.0660
     65 H          -6.0741   -2.5204   -3.5221 H       1  UNL1        0.0660
     66 H          -6.7442    0.2398    2.1963 H       1  UNL1        0.0660
     67 H          -8.1394    1.1194    1.5127 H       1  UNL1        0.0660
     68 H          -6.4426    1.8611    1.4921 H       1  UNL1        0.0660
     69 H          -4.7860    0.1077    1.6685 H       1  UNL1        0.0659
     70 H          -2.2994   -2.0885    1.7501 H       1  UNL1        0.0602
     71 H          -2.7368    1.6271    1.0337 H       1  UNL1        0.0621
     72 H          -3.1283    3.2792    2.8083 H       1  UNL1        0.0618
     73 H          -3.1340    2.5971    5.1637 H       1  UNL1        0.0618
     74 H          -2.7471    0.2785    5.7488 H       1  UNL1        0.0632
     75 H           2.3663    0.4194    2.4767 H       1  UNL1        0.0468
     76 H           1.2604    1.8447    2.1841 H       1  UNL1        0.0468
     77 H           3.7189    2.3827    1.9348 H       1  UNL1        0.0328
     78 H           2.8183    2.5605    0.3570 H       1  UNL1        0.0328
@<TRIPOS>BOND
     1     1     2    1
     2     2     3    1
     3     3     4   ar
     4     4     5   ar
     5     5     6   ar
     6     6     7   ar
     7     7     8   ar
     8     8     9    1
     9     9    10    1
    10     6    11    1
    11    11    12    1
    12    12    13   ar
    13    13    14   ar
    14    14    15   ar
    15    15    16   ar
    16    16    17   ar
    17    17    18    1
    18    11    19    1
    19    19    20   am
    20    20    21    2
    21    20    22   am
    22    22    23    1
    23    23    24    1
    24    24    25    1
    25    25    26   ar
    26    26    27   ar
    27    27    28    1
    28    28    29    1
    29    27    30   ar
    30    30    31    1
    31    31    32    1
    32    30    33   ar
    33    33    34   ar
    34    34    35    1
    35    35    36    1
    36    36    37   ar
    37    37    38   ar
    38    38    39   ar
    39    39    40   ar
    40    40    41   ar
    41    41    42    1
    42    19    43    1
    43    43    44    1
    44     8     3   ar
    45    17    12   ar
    46    35    22    1
    47    41    36   ar
    48    44     5    1
    49    34    25   ar
    50     1    45    1
    51     1    46    1
    52     1    47    1
    53     4    48    1
    54     7    49    1
    55    10    50    1
    56    10    51    1
    57    10    52    1
    58    11    53    1
    59    13    54    1
    60    14    55    1
    61    15    56    1
    62    16    57    1
    63    23    58    1
    64    23    59    1
    65    24    60    1
    66    24    61    1
    67    26    62    1
    68    29    63    1
    69    29    64    1
    70    29    65    1
    71    32    66    1
    72    32    67    1
    73    32    68    1
    74    33    69    1
    75    35    70    1
    76    37    71    1
    77    38    72    1
    78    39    73    1
    79    40    74    1
    80    43    75    1
    81    43    76    1
    82    44    77    1
    83    44    78    1
@<TRIPOS>MOLECULE
51027995
 47 49 0 0 0
SMALL
GASTEIGER

@<TRIPOS>ATOM
      1 C           5.2761    0.8348   -3.4199 C.3     1  UNL1       -0.0396
      2 C           4.7031    0.7478   -2.0607 C.ar    1  UNL1       -0.0470
      3 C           5.5285    0.7474   -0.9561 C.ar    1  UNL1       -0.0583
      4 C           4.9302    0.6639    0.2829 C.ar    1  UNL1       -0.0546
      5 C           3.5405    0.5816    0.4431 C.ar    1  UNL1       -0.0024
      6 C           2.8839    0.4890    1.7504 C.3     1  UNL1       -0.0180
      7 C           2.7777   -0.9672    2.1534 C.3     1  UNL1       -0.0585
      8 C           3.5365    1.2639    2.8525 C.3     1  UNL1       -0.0585
      9 C           2.7453    0.5846   -0.6847 C.ar    1  UNL1        0.1356
     10 O           1.3707    0.5046   -0.5568 O.3     1  UNL1       -0.4221
     11 C           0.6547   -0.6806   -0.5600 C.2     1  UNL1        0.3444
     12 O           1.3153   -1.7420   -0.6892 O.2     1  UNL1       -0.2445
     13 C          -0.7939   -0.6612   -0.4182 C.ar    1  UNL1        0.0594
     14 C          -1.5452   -1.8129   -0.4165 C.ar    1  UNL1       -0.0472
     15 C          -2.9278   -1.7815   -0.2798 C.ar    1  UNL1       -0.0533
     16 C          -3.5792   -0.5711   -0.1412 C.ar    1  UNL1       -0.0178
     17 C          -5.0262   -0.4644    0.0069 C.ar    1  UNL1       -0.0179
     18 C          -5.8955   -1.3577   -0.5835 C.ar    1  UNL1       -0.0540
     19 C          -7.2477   -1.2223   -0.4187 C.ar    1  UNL1       -0.0612
     20 C          -7.7729   -0.1991    0.3346 C.ar    1  UNL1       -0.0617
     21 C          -6.9350    0.7023    0.9322 C.ar    1  UNL1       -0.0612
     22 C          -5.5596    0.5593    0.7609 C.ar    1  UNL1       -0.0540
     23 C          -2.8302    0.5905   -0.1423 C.ar    1  UNL1       -0.0533
     24 C          -1.4439    0.5406   -0.2805 C.ar    1  UNL1       -0.0472
     25 C           3.3131    0.6670   -1.9374 C.ar    1  UNL1       -0.0160
     26 H           6.2606    0.2895   -3.3971 H       1  UNL1        0.0278
     27 H           5.5110    1.8582   -3.7402 H       1  UNL1        0.0278
     28 H           4.6422    0.2914   -4.1428 H       1  UNL1        0.0278
     29 H           6.6012    0.8113   -1.0870 H       1  UNL1        0.0620
     30 H           5.5543    0.6613    1.1598 H       1  UNL1        0.0622
     31 H           1.8489    0.9307    1.6462 H       1  UNL1        0.0345
     32 H           3.1616   -1.6150    1.3412 H       1  UNL1        0.0235
     33 H           3.4442   -1.1428    3.0268 H       1  UNL1        0.0235
     34 H           1.7166   -1.2048    2.3850 H       1  UNL1        0.0235
     35 H           4.6255    1.2671    2.8597 H       1  UNL1        0.0235
     36 H           3.0917    2.2974    2.9373 H       1  UNL1        0.0235
     37 H           3.2221    0.7666    3.8179 H       1  UNL1        0.0235
     38 H          -1.0862   -2.7925   -0.5219 H       1  UNL1        0.0626
     39 H          -3.5165   -2.6887   -0.2787 H       1  UNL1        0.0624
     40 H          -5.5252   -2.1767   -1.1840 H       1  UNL1        0.0624
     41 H          -7.8990   -1.9312   -0.8892 H       1  UNL1        0.0618
     42 H          -8.8520   -0.1408    0.4307 H       1  UNL1        0.0618
     43 H          -7.2914    1.5115    1.5249 H       1  UNL1        0.0618
     44 H          -4.9163    1.2872    1.2453 H       1  UNL1        0.0624
     45 H          -3.3462    1.5433   -0.0331 H       1  UNL1        0.0624
     46 H          -0.9292    1.4926   -0.2714 H       1  UNL1        0.0626
     47 H           2.6632    0.6671   -2.8015 H       1  UNL1        0.0657
@<TRIPOS>BOND
     1     1     2    1
     2     2     3   ar
     3     3     4   ar
     4     4     5   ar
     5     5     6    1
     6     6     7    1
     7     6     8    1
     8     5     9   ar
     9     9    10    1
    10    10    11    1
    11    11    12    2
    12    11    13    1
    13    13    14   ar
    14    14    15   ar
    15    15    16   ar
    16    16    17    1
    17    17    18   ar
    18    18    19   ar
    19    19    20   ar
    20    20    21   ar
    21    21    22   ar
    22    16    23   ar
    23    23    24   ar
    24     9    25   ar
    25    25     2   ar
    26    24    13   ar
    27    22    17   ar
    28     1    26    1
    29     1    27    1
    30     1    28    1
    31     3    29    1
    32     4    30    1
    33     6    31    1
    34     7    32    1
    35     7    33    1
    36     7    34    1
    37     8    35    1
    38     8    36    1
    39     8    37    1
    40    14    38    1
    41    15    39    1
    42    18    40    1
    43    19    41    1
    44    20    42    1
    45    21    43    1
    46    22    44    1
    47    23    45    1
    48    24    46    1
    49    25    47    1
@<TRIPOS>MOLECULE
CHEMBL4092287
 57 60 0 0 0
SMALL
GASTEIGER

@<TRIPOS>ATOM
      1 C          -4.4305    2.8049   -1.7553 C.3     1  UNL1       -0.0451
      2 C          -4.1613    1.5436   -0.9218 C.3     1  UNL1        0.0609
      3 C          -3.5397    0.5458   -1.9016 C.3     1  UNL1        0.1197
      4 F          -4.5192   -0.2461   -2.4504 F       1  UNL1       -0.2438
      5 C          -2.6063   -0.2279   -1.0043 C.3     1  UNL1        0.0056
      6 C          -2.1156    0.8617   -0.0716 C.3     1  UNL1        0.1108
      7 C          -0.9439    1.4869   -0.7668 C.2     1  UNL1        0.2323
      8 O          -1.0304    2.6801   -1.1418 O.2     1  UNL1       -0.2740
      9 N           0.2351    0.7272   -0.9880 N.am    1  UNL1       -0.3098
     10 C           1.4017    1.2758   -1.6548 C.3     1  UNL1        0.0397
     11 C           2.4555    0.2293   -1.7107 C.ar    1  UNL1        0.0083
     12 C           3.5480    0.2831   -0.8368 C.ar    1  UNL1       -0.0282
     13 C           4.5274   -0.6809   -0.8751 C.ar    1  UNL1        0.0744
     14 C           5.6921   -0.6767    0.0174 C.ar    1  UNL1        0.0366
     15 C           6.6511   -1.6826   -0.0651 C.ar    1  UNL1        0.0405
     16 N           7.7311   -1.7407    0.7133 N.ar    1  UNL1       -0.2318
     17 C           7.9096   -0.7843    1.6252 C.ar    1  UNL1        0.2339
     18 C           9.1267   -0.8586    2.4964 C.3     1  UNL1        0.4522
     19 F           9.5295    0.4560    2.7064 F       1  UNL1       -0.1632
     20 F          10.1088   -1.4859    1.7888 F       1  UNL1       -0.1632
     21 F           8.8263   -1.4893    3.6900 F       1  UNL1       -0.1632
     22 N           7.0178    0.2016    1.7427 N.ar    1  UNL1       -0.2318
     23 C           5.9052    0.2894    0.9633 C.ar    1  UNL1        0.0405
     24 N           4.3895   -1.6658   -1.7796 N.ar    1  UNL1       -0.2520
     25 C           3.3508   -1.7419   -2.6307 C.ar    1  UNL1        0.0637
     26 C           2.3375   -0.7900   -2.6281 C.ar    1  UNL1        0.1461
     27 F           1.2866   -0.8567   -3.4802 F       1  UNL1       -0.2036
     28 N          -3.1937    1.7815    0.0970 N.3     1  UNL1       -0.1591
     29 S          -3.9109    1.5446    1.6405 S.O2    1  UNL1        0.0618
     30 O          -4.9527    2.6174    1.9112 O.2     1  UNL1       -0.1528
     31 O          -2.8733    1.7205    2.7407 O.2     1  UNL1       -0.1528
     32 C          -4.5896   -0.0455    1.8521 C.ar    1  UNL1        0.1057
     33 C          -3.7848   -1.0605    2.3179 C.ar    1  UNL1       -0.0326
     34 C          -4.3099   -2.3188    2.4923 C.ar    1  UNL1       -0.0246
     35 C          -5.6342   -2.5993    2.2121 C.ar    1  UNL1        0.1235
     36 F          -6.1643   -3.8529    2.3836 F       1  UNL1       -0.2055
     37 C          -6.4068   -1.5501    1.7467 C.ar    1  UNL1       -0.0246
     38 C          -5.9265   -0.2739    1.5558 C.ar    1  UNL1       -0.0326
     39 H          -3.6548    2.8882   -2.5437 H       1  UNL1        0.0246
     40 H          -5.3881    2.5883   -2.3019 H       1  UNL1        0.0246
     41 H          -4.5088    3.6883   -1.1130 H       1  UNL1        0.0246
     42 H          -5.1202    1.1328   -0.6017 H       1  UNL1        0.0506
     43 H          -2.9604    1.1052   -2.6510 H       1  UNL1        0.0668
     44 H          -3.1491   -1.0307   -0.5077 H       1  UNL1        0.0314
     45 H          -1.7746   -0.6010   -1.6500 H       1  UNL1        0.0314
     46 H          -1.7395    0.4009    0.8598 H       1  UNL1        0.0577
     47 H           0.2270   -0.2671   -0.6421 H       1  UNL1        0.1491
     48 H           1.1305    1.5739   -2.6804 H       1  UNL1        0.0512
     49 H           1.8136    2.1636   -1.1431 H       1  UNL1        0.0512
     50 H           3.6057    1.0894   -0.1382 H       1  UNL1        0.0643
     51 H           6.5076   -2.4707   -0.8130 H       1  UNL1        0.0837
     52 H           5.2092    1.1057    1.0924 H       1  UNL1        0.0837
     53 H           3.2976   -2.5497   -3.3270 H       1  UNL1        0.0859
     54 H          -2.7441   -0.9306    2.5627 H       1  UNL1        0.0638
     55 H          -3.6782   -3.1322    2.8620 H       1  UNL1        0.0647
     56 H          -7.4573   -1.7125    1.5096 H       1  UNL1        0.0647
     57 H          -6.5526    0.5370    1.1929 H       1  UNL1        0.0638
@<TRIPOS>BOND
     1     1     2    1
     2     2     3    1
     3     3     4    1
     4     3     5    1
     5     5     6    1
     6     6     7    1
     7     7     8    2
     8     7     9   am
     9     9    10    1
    10    10    11    1
    11    11    12   ar
    12    12    13   ar
    13    13    14    1
    14    14    15   ar
    15    15    16   ar
    16    16    17   ar
    17    17    18    1
    18    18    19    1
    19    18    20    1
    20    18    21    1
    21    17    22   ar
    22    22    23   ar
    23    13    24   ar
    24    24    25   ar
    25    25    26   ar
    26    26    27    1
    27     6    28    1
    28    28    29    1
    29    29    30    2
    30    29    31    2
    31    29    32    1
    32    32    33   ar
    33    33    34   ar
    34    34    35   ar
    35    35    36    1
    36    35    37   ar
    37    37    38   ar
    38    28     2    1
    39    38    32   ar
    40    26    11   ar
    41    23    14   ar
    42     1    39    1
    43     1    40    1
    44     1    41    1
    45     2    42    1
    46     3    43    1
    47     5    44    1
    48     5    45    1
    49     6    46    1
    50     9    47    1
    51    10    48    1
    52    10    49    1
    53    12    50    1
    54    15    51    1
    55    23    52    1
    56    25    53    1
    57    33    54    1
    58    34    55    1
    59    37    56    1
    60    38    57    1
@<TRIPOS>MOLECULE
53361524
 64 67 0 0 0
SMALL
GASTEIGER

@<TRIPOS>ATOM
      1 C          10.1323    3.1038   -0.9304 C.3     1  UNL1        0.0125
      2 C           9.4174    1.8366   -0.5774 C.2     1  UNL1        0.2141
      3 O          10.1125    0.8331   -0.3349 O.2     1  UNL1       -0.2758
      4 N           8.0070    1.7647   -0.5166 N.am    1  UNL1       -0.2854
      5 C           7.2329    0.6179   -0.1960 C.ar    1  UNL1        0.0381
      6 C           7.7697   -0.6183    0.0485 C.ar    1  UNL1       -0.0401
      7 C           6.9783   -1.7059    0.3530 C.ar    1  UNL1       -0.0582
      8 C           5.5983   -1.5762    0.4201 C.ar    1  UNL1       -0.0401
      9 C           5.0208   -0.3624    0.1836 C.ar    1  UNL1        0.0383
     10 N           3.6288   -0.1973    0.1918 N.pl3   1  UNL1       -0.2832
     11 C           2.6965   -1.1324    0.6667 C.ar    1  UNL1        0.2238
     12 N           2.9953   -2.2527    1.3043 N.ar    1  UNL1       -0.2026
     13 C           2.1232   -3.1359    1.7583 C.ar    1  UNL1        0.1232
     14 N           0.8120   -2.9114    1.5757 N.ar    1  UNL1       -0.2028
     15 C           0.4260   -1.7805    0.9281 C.ar    1  UNL1        0.2221
     16 N          -0.9635   -1.5756    0.7658 N.pl3   1  UNL1       -0.2994
     17 C          -1.4554   -0.6699   -0.2153 C.3     1  UNL1        0.0172
     18 C          -2.9364   -0.4331   -0.1344 C.3     1  UNL1       -0.0107
     19 C          -3.7647   -1.6559    0.1548 C.3     1  UNL1        0.0620
     20 O          -4.4897   -1.9876   -0.9550 O.3     1  UNL1       -0.3719
     21 C          -5.8373   -1.8753   -0.9219 C.3     1  UNL1        0.0730
     22 C          -6.3859   -0.5155   -0.7151 C.ar    1  UNL1       -0.0217
     23 C          -6.5865    0.3422   -1.8044 C.ar    1  UNL1       -0.0529
     24 C          -7.0972    1.6031   -1.6517 C.ar    1  UNL1       -0.0193
     25 C          -7.4446    2.1030   -0.4147 C.ar    1  UNL1        0.1300
     26 O          -7.9654    3.3894   -0.2655 O.3     1  UNL1       -0.4057
     27 C          -9.3567    3.6454   -0.3181 C.3     1  UNL1        0.5752
     28 F          -9.9501    2.9325    0.6998 F       1  UNL1       -0.1328
     29 F          -9.8920    3.2093   -1.5172 F       1  UNL1       -0.1328
     30 F          -9.5681    4.9973   -0.2013 F       1  UNL1       -0.1328
     31 C          -7.2525    1.2706    0.6611 C.ar    1  UNL1       -0.0193
     32 C          -6.7313   -0.0206    0.5157 C.ar    1  UNL1       -0.0529
     33 C          -2.9630   -2.8289    0.6900 C.3     1  UNL1       -0.0107
     34 C          -1.8968   -2.2780    1.6076 C.3     1  UNL1        0.0172
     35 N           1.3487   -0.9192    0.4881 N.ar    1  UNL1       -0.1807
     36 C           5.8589    0.7321   -0.1246 C.ar    1  UNL1       -0.0081
     37 C           5.1237    2.0123   -0.3357 C.3     1  UNL1       -0.0362
     38 H          10.9216    3.2353   -0.1523 H       1  UNL1        0.0323
     39 H           9.4974    3.9866   -0.9177 H       1  UNL1        0.0323
     40 H          10.6872    2.9990   -1.9025 H       1  UNL1        0.0323
     41 H           7.5306    2.6888   -0.7504 H       1  UNL1        0.1548
     42 H           8.8308   -0.8042    0.0134 H       1  UNL1        0.0636
     43 H           7.4372   -2.6820    0.5443 H       1  UNL1        0.0619
     44 H           5.0381   -2.4872    0.6545 H       1  UNL1        0.0636
     45 H           3.2014    0.7020   -0.1995 H       1  UNL1        0.1550
     46 H           2.4992   -4.0074    2.2616 H       1  UNL1        0.1049
     47 H          -1.1579   -0.9747   -1.2499 H       1  UNL1        0.0465
     48 H          -0.9509    0.3171   -0.0405 H       1  UNL1        0.0465
     49 H          -3.0915    0.3852    0.6352 H       1  UNL1        0.0305
     50 H          -3.2430    0.0577   -1.0906 H       1  UNL1        0.0305
     51 H          -4.4256   -1.3492    1.0227 H       1  UNL1        0.0597
     52 H          -6.3261   -2.5534   -0.2038 H       1  UNL1        0.0610
     53 H          -6.2169   -2.1893   -1.9389 H       1  UNL1        0.0610
     54 H          -6.3047   -0.0769   -2.7638 H       1  UNL1        0.0622
     55 H          -7.2406    2.2431   -2.5188 H       1  UNL1        0.0654
     56 H          -7.5127    1.6311    1.6432 H       1  UNL1        0.0654
     57 H          -6.6131   -0.6361    1.4175 H       1  UNL1        0.0622
     58 H          -2.4996   -3.3790   -0.1550 H       1  UNL1        0.0305
     59 H          -3.6752   -3.4694    1.2605 H       1  UNL1        0.0305
     60 H          -1.4098   -3.0482    2.2394 H       1  UNL1        0.0465
     61 H          -2.3642   -1.4779    2.2572 H       1  UNL1        0.0465
     62 H           4.4132    2.0730    0.5529 H       1  UNL1        0.0279
     63 H           5.7150    2.9152   -0.2620 H       1  UNL1        0.0279
     64 H           4.5149    1.9402   -1.2404 H       1  UNL1        0.0279
@<TRIPOS>BOND
     1     1     2    1
     2     2     3    2
     3     2     4   am
     4     4     5    1
     5     5     6   ar
     6     6     7   ar
     7     7     8   ar
     8     8     9   ar
     9     9    10    1
    10    10    11    1
    11    11    12   ar
    12    12    13   ar
    13    13    14   ar
    14    14    15   ar
    15    15    16    1
    16    16    17    1
    17    17    18    1
    18    18    19    1
    19    19    20    1
    20    20    21    1
    21    21    22    1
    22    22    23   ar
    23    23    24   ar
    24    24    25   ar
    25    25    26    1
    26    26    27    1
    27    27    28    1
    28    27    29    1
    29    27    30    1
    30    25    31   ar
    31    31    32   ar
    32    19    33    1
    33    33    34    1
    34    15    35   ar
    35     9    36   ar
    36    36    37    1
    37    36     5   ar
    38    35    11   ar
    39    34    16    1
    40    32    22   ar
    41     1    38    1
    42     1    39    1
    43     1    40    1
    44     4    41    1
    45     6    42    1
    46     7    43    1
    47     8    44    1
    48    10    45    1
    49    13    46    1
    50    17    47    1
    51    17    48    1
    52    18    49    1
    53    18    50    1
    54    19    51    1
    55    21    52    1
    56    21    53    1
    57    23    54    1
    58    24    55    1
    59    31    56    1
    60    32    57    1
    61    33    58    1
    62    33    59    1
    63    34    60    1
    64    34    61    1
    65    37    62    1
    66    37    63    1
    67    37    64    1
@<TRIPOS>MOLECULE
50934300
 43 45 0 0 0
SMALL
GASTEIGER

@<TRIPOS>ATOM
      1 C          -2.8904    1.8848   -0.4791 C.3     1  UNL1       -0.0615
      2 C          -2.8011    1.2354    0.8762 C.3     1  UNL1       -0.0339
      3 C          -2.7279    2.4039    1.8723 C.3     1  UNL1       -0.0615
      4 C          -1.5179    0.4829    1.0876 C.3     1  UNL1        0.0021
      5 N          -1.2325   -0.5665    0.2147 N.3     1  UNL1       -0.2910
      6 C          -2.1587   -1.6626    0.4221 C.3     1  UNL1        0.0042
      7 C          -2.4475   -2.2948   -0.9175 C.3     1  UNL1       -0.0083
      8 C          -1.1443   -2.4520   -1.5586 C.ar    1  UNL1       -0.0040
      9 S          -0.7527   -3.3615   -3.1077 S.2     1  UNL1       -0.1012
     10 C           0.9285   -3.0194   -3.0721 C.ar    1  UNL1       -0.0237
     11 C           1.1125   -2.2525   -1.9195 C.ar    1  UNL1       -0.0495
     12 C           0.0668   -1.9565   -1.1409 C.ar    1  UNL1       -0.0157
     13 C           0.0482   -1.1223    0.1804 C.3     1  UNL1        0.0617
     14 C           1.2321   -0.3285    0.1816 C.ar    1  UNL1       -0.0258
     15 C           1.4335    0.8105   -0.5775 C.ar    1  UNL1       -0.0562
     16 C           2.6070    1.4759   -0.4827 C.ar    1  UNL1       -0.0498
     17 C           3.6549    1.0931    0.3412 C.ar    1  UNL1        0.0548
     18 C           4.9071    1.8907    0.3797 C.3     1  UNL1        0.4174
     19 F           4.6380    3.1429    0.9548 F       1  UNL1       -0.1659
     20 F           5.4325    2.1341   -0.8517 F       1  UNL1       -0.1659
     21 F           5.7965    1.2731    1.2477 F       1  UNL1       -0.1659
     22 C           3.4751   -0.0404    1.1068 C.ar    1  UNL1       -0.0498
     23 C           2.2823   -0.7264    1.0178 C.ar    1  UNL1       -0.0562
     24 H          -2.8353    2.9751   -0.4733 H       1  UNL1        0.0233
     25 H          -2.0876    1.5192   -1.1765 H       1  UNL1        0.0233
     26 H          -3.8965    1.6125   -0.8975 H       1  UNL1        0.0233
     27 H          -3.7023    0.7027    1.1875 H       1  UNL1        0.0308
     28 H          -2.3000    1.9919    2.8079 H       1  UNL1        0.0233
     29 H          -3.7340    2.8212    2.0602 H       1  UNL1        0.0233
     30 H          -2.0230    3.1865    1.4839 H       1  UNL1        0.0233
     31 H          -0.7353    1.2886    0.9508 H       1  UNL1        0.0429
     32 H          -1.5746    0.1405    2.1379 H       1  UNL1        0.0429
     33 H          -3.1264   -1.3668    0.8289 H       1  UNL1        0.0430
     34 H          -1.7325   -2.4509    1.0767 H       1  UNL1        0.0430
     35 H          -2.9872   -3.2535   -0.8146 H       1  UNL1        0.0331
     36 H          -3.0494   -1.5700   -1.5040 H       1  UNL1        0.0331
     37 H           1.7227   -3.3177   -3.7781 H       1  UNL1        0.0693
     38 H           2.1882   -1.9077   -1.6945 H       1  UNL1        0.0626
     39 H           0.1093   -1.9219    0.9457 H       1  UNL1        0.0563
     40 H           0.6158    1.1013   -1.2153 H       1  UNL1        0.0621
     41 H           2.7265    2.3756   -1.1036 H       1  UNL1        0.0623
     42 H           4.2780   -0.3571    1.7550 H       1  UNL1        0.0623
     43 H           2.2015   -1.6134    1.6474 H       1  UNL1        0.0621
@<TRIPOS>BOND
     1     1     2    1
     2     2     3    1
     3     2     4    1
     4     4     5    1
     5     5     6    1
     6     6     7    1
     7     7     8    1
     8     8     9   ar
     9     9    10   ar
    10    10    11   ar
    11    11    12   ar
    12    12    13    1
    13    13    14    1
    14    14    15   ar
    15    15    16   ar
    16    16    17   ar
    17    17    18    1
    18    18    19    1
    19    18    20    1
    20    18    21    1
    21    17    22   ar
    22    22    23   ar
    23    13     5    1
    24    23    14   ar
    25    12     8   ar
    26     1    24    1
    27     1    25    1
    28     1    26    1
    29     2    27    1
    30     3    28    1
    31     3    29    1
    32     3    30    1
    33     4    31    1
    34     4    32    1
    35     6    33    1
    36     6    34    1
    37     7    35    1
    38     7    36    1
    39    10    37    1
    40    11    38    1
    41    13    39    1
    42    15    40    1
    43    16    41    1
    44    22    42    1
    45    23    43    1
@<TRIPOS>MOLECULE
50934299
 40 42 0 0 0
SMALL
GASTEIGER

@<TRIPOS>ATOM
      1 C          -1.7932   -2.8744   -0.2136 C.3     1  UNL1       -0.0497
      2 C          -2.1237   -1.5927    0.5353 C.3     1  UNL1        0.0057
      3 C          -2.1632   -1.8277    2.0103 C.3     1  UNL1       -0.0497
      4 N          -1.3831   -0.5481    0.0401 N.3     1  UNL1       -0.2888
      5 C          -1.5802   -0.2364   -1.3196 C.3     1  UNL1        0.0045
      6 C          -2.2772    1.0950   -1.4064 C.3     1  UNL1       -0.0083
      7 C          -1.7853    1.9796   -0.3491 C.ar    1  UNL1       -0.0040
      8 S          -2.1477    3.7499   -0.1244 S.2     1  UNL1       -0.1012
      9 C          -1.1467    3.9180    1.3681 C.ar    1  UNL1       -0.0237
     10 C          -0.6456    2.6799    1.5625 C.ar    1  UNL1       -0.0495
     11 C          -0.9498    1.6833    0.7136 C.ar    1  UNL1       -0.0157
     12 C          -0.4941    0.2421    0.7685 C.3     1  UNL1        0.0619
     13 C           0.8963    0.1822    0.2313 C.ar    1  UNL1       -0.0258
     14 C           1.4856   -1.0436   -0.0740 C.ar    1  UNL1       -0.0562
     15 C           2.7635   -1.1628   -0.5772 C.ar    1  UNL1       -0.0498
     16 C           3.5163   -0.0305   -0.7985 C.ar    1  UNL1        0.0548
     17 C           4.8997   -0.1503   -1.3426 C.3     1  UNL1        0.4174
     18 F           5.6352    0.9799   -1.1331 F       1  UNL1       -0.1659
     19 F           4.8485   -0.5094   -2.6787 F       1  UNL1       -0.1659
     20 F           5.5254   -1.2028   -0.6783 F       1  UNL1       -0.1659
     21 C           2.9777    1.2022   -0.5127 C.ar    1  UNL1       -0.0498
     22 C           1.6882    1.2829   -0.0073 C.ar    1  UNL1       -0.0562
     23 H          -1.1478   -2.6266   -1.0919 H       1  UNL1        0.0245
     24 H          -1.2867   -3.6101    0.4470 H       1  UNL1        0.0245
     25 H          -2.6874   -3.3806   -0.6021 H       1  UNL1        0.0245
     26 H          -3.2142   -1.4081    0.2661 H       1  UNL1        0.0457
     27 H          -2.8779   -1.1710    2.5495 H       1  UNL1        0.0245
     28 H          -2.5418   -2.8731    2.1663 H       1  UNL1        0.0245
     29 H          -1.2040   -1.7676    2.5255 H       1  UNL1        0.0245
     30 H          -2.1881   -1.0304   -1.8015 H       1  UNL1        0.0430
     31 H          -0.6056   -0.1101   -1.8802 H       1  UNL1        0.0430
     32 H          -3.3562    0.9004   -1.2033 H       1  UNL1        0.0331
     33 H          -2.1742    1.5370   -2.4267 H       1  UNL1        0.0331
     34 H          -1.0362    4.8375    1.9097 H       1  UNL1        0.0693
     35 H           0.0307    2.5504    2.4670 H       1  UNL1        0.0626
     36 H          -0.4139    0.0082    1.8480 H       1  UNL1        0.0563
     37 H           0.9360   -1.9451    0.0832 H       1  UNL1        0.0621
     38 H           3.2057   -2.1244   -0.8088 H       1  UNL1        0.0623
     39 H           3.5248    2.1284   -0.6669 H       1  UNL1        0.0623
     40 H           1.2901    2.2690    0.2050 H       1  UNL1        0.0621
@<TRIPOS>BOND
     1     1     2    1
     2     2     3    1
     3     2     4    1
     4     4     5    1
     5     5     6    1
     6     6     7    1
     7     7     8   ar
     8     8     9   ar
     9     9    10   ar
    10    10    11   ar
    11    11    12    1
    12    12    13    1
    13    13    14   ar
    14    14    15   ar
    15    15    16   ar
    16    16    17    1
    17    17    18    1
    18    17    19    1
    19    17    20    1
    20    16    21   ar
    21    21    22   ar
    22    12     4    1
    23    22    13   ar
    24    11     7   ar
    25     1    23    1
    26     1    24    1
    27     1    25    1
    28     2    26    1
    29     3    27    1
    30     3    28    1
    31     3    29    1
    32     5    30    1
    33     5    31    1
    34     6    32    1
    35     6    33    1
    36     9    34    1
    37    10    35    1
    38    12    36    1
    39    14    37    1
    40    15    38    1
    41    21    39    1
    42    22    40    1
@<TRIPOS>MOLECULE
90655361
 51 54 0 0 0
SMALL
GASTEIGER

@<TRIPOS>ATOM
      1 C          -0.7293    1.0653    2.0781 C.3     1  UNL1       -0.0350
      2 C          -0.7380    1.0341    0.5449 C.3     1  UNL1        0.0866
      3 C          -1.3781   -0.2432    0.1500 C.ar    1  UNL1       -0.0197
      4 C          -2.1659   -0.9000    1.0522 C.ar    1  UNL1       -0.0557
      5 C          -2.7979   -2.1010    0.7551 C.ar    1  UNL1       -0.0498
      6 C          -2.6302   -2.6564   -0.4897 C.ar    1  UNL1        0.0548
      7 C          -3.3077   -3.9517   -0.8209 C.3     1  UNL1        0.4174
      8 F          -2.4709   -4.7517   -1.5605 F       1  UNL1       -0.1659
      9 F          -3.6311   -4.6329    0.3378 F       1  UNL1       -0.1659
     10 F          -4.4885   -3.6801   -1.4757 F       1  UNL1       -0.1659
     11 C          -1.8378   -1.9971   -1.3990 C.ar    1  UNL1       -0.0498
     12 C          -1.2074   -0.8001   -1.1043 C.ar    1  UNL1       -0.0557
     13 C          -1.6327    2.1442    0.1264 C.ar    1  UNL1       -0.0165
     14 C          -3.0058    1.9267   -0.0207 C.ar    1  UNL1       -0.0560
     15 C          -3.7676    3.0030   -0.4046 C.ar    1  UNL1       -0.0614
     16 C          -3.2328    4.2486   -0.6408 C.ar    1  UNL1       -0.0615
     17 C          -1.8774    4.4271   -0.4867 C.ar    1  UNL1       -0.0582
     18 C          -1.0696    3.3759   -0.1024 C.ar    1  UNL1       -0.0403
     19 C           0.4054    3.5558    0.0629 C.3     1  UNL1       -0.0114
     20 C           1.0313    2.3469   -0.6000 C.3     1  UNL1        0.0213
     21 N           0.6066    1.1375    0.0281 N.am    1  UNL1       -0.2716
     22 C           1.4681    0.0226    0.1598 C.2     1  UNL1        0.3074
     23 O           1.0790   -1.0549    0.7285 O.2     1  UNL1       -0.2523
     24 N           2.8083   -0.0055   -0.3134 N.am    1  UNL1       -0.2693
     25 C           3.6363   -1.1453   -0.1580 C.ar    1  UNL1        0.0349
     26 C           4.4095   -1.2577    0.9758 C.ar    1  UNL1       -0.0377
     27 C           5.2421   -2.3497    1.1858 C.ar    1  UNL1       -0.0247
     28 C           5.3100   -3.3571    0.2472 C.ar    1  UNL1        0.1235
     29 F           6.1179   -4.4458    0.4198 F       1  UNL1       -0.2055
     30 C           4.5500   -3.2558   -0.8768 C.ar    1  UNL1       -0.0247
     31 C           3.7116   -2.1562   -1.0883 C.ar    1  UNL1       -0.0377
     32 H          -0.0192    1.8034    2.4855 H       1  UNL1        0.0257
     33 H          -1.7217    1.3455    2.4819 H       1  UNL1        0.0257
     34 H          -0.4783    0.0657    2.5048 H       1  UNL1        0.0257
     35 H          -2.3495   -0.5287    2.0480 H       1  UNL1        0.0621
     36 H          -3.4201   -2.6117    1.4810 H       1  UNL1        0.0623
     37 H          -1.7056   -2.4326   -2.3769 H       1  UNL1        0.0623
     38 H          -0.5797   -0.2565   -1.7922 H       1  UNL1        0.0621
     39 H          -3.4311    0.9448    0.1638 H       1  UNL1        0.0621
     40 H          -4.8343    2.8729   -0.5283 H       1  UNL1        0.0618
     41 H          -3.8536    5.0995   -0.9468 H       1  UNL1        0.0618
     42 H          -1.3835    5.3736   -0.6533 H       1  UNL1        0.0620
     43 H           0.7370    4.4659   -0.4877 H       1  UNL1        0.0328
     44 H           0.7041    3.6050    1.1292 H       1  UNL1        0.0328
     45 H           0.6618    2.3439   -1.6668 H       1  UNL1        0.0468
     46 H           2.1202    2.5298   -0.5899 H       1  UNL1        0.0468
     47 H           3.2079    0.8521   -0.8013 H       1  UNL1        0.1564
     48 H           4.3787   -0.4717    1.7447 H       1  UNL1        0.0637
     49 H           5.8380   -2.4168    2.0799 H       1  UNL1        0.0647
     50 H           4.6065   -4.0461   -1.6079 H       1  UNL1        0.0647
     51 H           3.1148   -2.0839   -1.9785 H       1  UNL1        0.0637
@<TRIPOS>BOND
     1     1     2    1
     2     2     3    1
     3     3     4   ar
     4     4     5   ar
     5     5     6   ar
     6     6     7    1
     7     7     8    1
     8     7     9    1
     9     7    10    1
    10     6    11   ar
    11    11    12   ar
    12     2    13    1
    13    13    14   ar
    14    14    15   ar
    15    15    16   ar
    16    16    17   ar
    17    17    18   ar
    18    18    19    1
    19    19    20    1
    20    20    21    1
    21    21    22   am
    22    22    23    2
    23    22    24   am
    24    24    25    1
    25    25    26   ar
    26    26    27   ar
    27    27    28   ar
    28    28    29    1
    29    28    30   ar
    30    30    31   ar
    31    21     2    1
    32    31    25   ar
    33    12     3   ar
    34    18    13   ar
    35     1    32    1
    36     1    33    1
    37     1    34    1
    38     4    35    1
    39     5    36    1
    40    11    37    1
    41    12    38    1
    42    14    39    1
    43    15    40    1
    44    16    41    1
    45    17    42    1
    46    19    43    1
    47    19    44    1
    48    20    45    1
    49    20    46    1
    50    24    47    1
    51    26    48    1
    52    27    49    1
    53    30    50    1
    54    31    51    1
@<TRIPOS>MOLECULE
CHEMBL4242496
 49 52 0 0 0
SMALL
GASTEIGER

@<TRIPOS>ATOM
      1 C          -2.2749   -2.8788   -0.3717 C.3     1  UNL1       -0.0394
      2 C          -2.6811   -1.8307    0.6267 C.ar    1  UNL1       -0.0451
      3 C          -3.5033   -2.2006    1.6886 C.ar    1  UNL1       -0.0585
      4 C          -3.8948   -1.2636    2.6207 C.ar    1  UNL1       -0.0615
      5 C          -3.4789    0.0285    2.5070 C.ar    1  UNL1       -0.0614
      6 C          -2.6716    0.3703    1.4561 C.ar    1  UNL1       -0.0562
      7 C          -2.2501   -0.5351    0.4921 C.ar    1  UNL1       -0.0184
      8 C          -1.3728   -0.0970   -0.6230 C.3     1  UNL1        0.0916
      9 N           0.0253   -0.0113   -0.1731 N.am    1  UNL1       -0.2990
     10 C           1.0352   -0.8341   -0.6679 C.2     1  UNL1        0.2449
     11 O           0.7202   -1.6899   -1.5439 O.2     1  UNL1       -0.2702
     12 C           2.3975   -0.7203   -0.2019 C.ar    1  UNL1        0.0388
     13 C           3.3840   -1.5554   -0.7068 C.ar    1  UNL1       -0.0489
     14 C           4.7043   -1.4823   -0.2920 C.ar    1  UNL1       -0.0519
     15 C           5.0628   -0.5475    0.6587 C.ar    1  UNL1        0.0004
     16 C           6.3716   -0.4355    1.1054 C.ar    1  UNL1       -0.0511
     17 C           6.7125    0.5081    2.0588 C.ar    1  UNL1       -0.0430
     18 C           5.7227    1.3318    2.5524 C.ar    1  UNL1        0.0283
     19 N           4.4656    1.1968    2.0982 N.ar    1  UNL1       -0.2550
     20 C           4.1059    0.2906    1.1742 C.ar    1  UNL1        0.0717
     21 C           2.7786    0.1949    0.7368 C.ar    1  UNL1       -0.0236
     22 C          -1.7619    1.1952   -1.1957 C.ar    1  UNL1        0.0775
     23 N          -1.0718    2.2957   -0.7701 N.ar    1  UNL1       -0.2571
     24 C          -1.3209    3.5306   -1.2013 C.ar    1  UNL1        0.0280
     25 C          -2.3190    3.7469   -2.1242 C.ar    1  UNL1       -0.0430
     26 C          -3.0189    2.6562   -2.5601 C.ar    1  UNL1       -0.0469
     27 C          -2.7647    1.3552   -2.1132 C.ar    1  UNL1        0.0782
     28 C          -3.5554    0.2391   -2.6276 C.3     1  UNL1        0.4191
     29 F          -4.2790   -0.4537   -1.6919 F       1  UNL1       -0.1658
     30 F          -4.4931    0.7252   -3.5369 F       1  UNL1       -0.1658
     31 F          -2.7804   -0.6467   -3.3845 F       1  UNL1       -0.1658
     32 H          -2.8510   -3.8160   -0.1643 H       1  UNL1        0.0278
     33 H          -2.5488   -2.5944   -1.4042 H       1  UNL1        0.0278
     34 H          -1.2141   -3.1504   -0.2524 H       1  UNL1        0.0278
     35 H          -3.8269   -3.2363    1.7653 H       1  UNL1        0.0620
     36 H          -4.5435   -1.5625    3.4557 H       1  UNL1        0.0618
     37 H          -3.8143    0.7252    3.2647 H       1  UNL1        0.0618
     38 H          -2.3463    1.3961    1.3730 H       1  UNL1        0.0621
     39 H          -1.3886   -0.9225   -1.3686 H       1  UNL1        0.0614
     40 H           0.2129    0.7012    0.5368 H       1  UNL1        0.1500
     41 H           3.1708   -2.3183   -1.4616 H       1  UNL1        0.0625
     42 H           5.4481   -2.1416   -0.6997 H       1  UNL1        0.0624
     43 H           7.1493   -1.0962    0.7053 H       1  UNL1        0.0625
     44 H           7.7184    0.6304    2.4348 H       1  UNL1        0.0633
     45 H           5.9041    2.0964    3.2997 H       1  UNL1        0.0830
     46 H           2.0855    0.8839    1.1858 H       1  UNL1        0.0646
     47 H          -0.7725    4.4040   -0.8628 H       1  UNL1        0.0829
     48 H          -2.5676    4.7210   -2.5102 H       1  UNL1        0.0633
     49 H          -3.8092    2.7975   -3.2860 H       1  UNL1        0.0624
@<TRIPOS>BOND
     1     1     2    1
     2     2     3   ar
     3     3     4   ar
     4     4     5   ar
     5     5     6   ar
     6     6     7   ar
     7     7     8    1
     8     8     9    1
     9     9    10   am
    10    10    11    2
    11    10    12    1
    12    12    13   ar
    13    13    14   ar
    14    14    15   ar
    15    15    16   ar
    16    16    17   ar
    17    17    18   ar
    18    18    19   ar
    19    19    20   ar
    20    20    21   ar
    21     8    22    1
    22    22    23   ar
    23    23    24   ar
    24    24    25   ar
    25    25    26   ar
    26    26    27   ar
    27    27    28    1
    28    28    29    1
    29    28    30    1
    30    28    31    1
    31     7     2   ar
    32    21    12   ar
    33    27    22   ar
    34    20    15   ar
    35     1    32    1
    36     1    33    1
    37     1    34    1
    38     3    35    1
    39     4    36    1
    40     5    37    1
    41     6    38    1
    42     8    39    1
    43     9    40    1
    44    13    41    1
    45    14    42    1
    46    16    43    1
    47    17    44    1
    48    18    45    1
    49    21    46    1
    50    24    47    1
    51    25    48    1
    52    26    49    1
@<TRIPOS>MOLECULE
50934301
 44 47 0 0 0
SMALL
GASTEIGER

@<TRIPOS>ATOM
      1 F           4.1460   -3.7414    0.8675 F       1  UNL1       -0.1659
      2 C           4.6060   -2.5124    0.4972 C.3     1  UNL1        0.4174
      3 F           5.6126   -2.1558    1.3954 F       1  UNL1       -0.1659
      4 F           5.1299   -2.5015   -0.7902 F       1  UNL1       -0.1659
      5 C           3.4897   -1.5287    0.5208 C.ar    1  UNL1        0.0548
      6 C           2.4081   -1.7498    1.3528 C.ar    1  UNL1       -0.0498
      7 C           1.3886   -0.8215    1.3542 C.ar    1  UNL1       -0.0562
      8 C           1.4147    0.3051    0.5619 C.ar    1  UNL1       -0.0258
      9 C           0.2893    1.2394    0.5981 C.3     1  UNL1        0.0620
     10 C           0.5795    2.5750   -0.0610 C.ar    1  UNL1       -0.0157
     11 C           1.6954    3.3124    0.1315 C.ar    1  UNL1       -0.0495
     12 C           1.8401    4.4953   -0.5068 C.ar    1  UNL1       -0.0237
     13 S           0.3217    4.6497   -1.4746 S.2     1  UNL1       -0.1012
     14 C          -0.3590    3.0934   -0.9164 C.ar    1  UNL1       -0.0040
     15 C          -1.6582    2.4486   -1.2511 C.3     1  UNL1       -0.0083
     16 C          -1.9998    1.6152   -0.0344 C.3     1  UNL1        0.0046
     17 N          -0.9261    0.7132    0.1679 N.3     1  UNL1       -0.2870
     18 C          -0.9162   -0.4597   -0.6252 C.3     1  UNL1        0.0249
     19 C          -2.1443   -1.2485   -0.3529 C.ar    1  UNL1       -0.0333
     20 C          -3.2850   -1.1075   -1.1046 C.ar    1  UNL1       -0.0573
     21 C          -4.4263   -1.8431   -0.8418 C.ar    1  UNL1       -0.0615
     22 C          -4.4684   -2.7542    0.1909 C.ar    1  UNL1       -0.0617
     23 C          -3.3466   -2.9105    0.9503 C.ar    1  UNL1       -0.0615
     24 C          -2.2080   -2.1780    0.6898 C.ar    1  UNL1       -0.0573
     25 C           2.4916    0.5016   -0.2509 C.ar    1  UNL1       -0.0562
     26 C           3.5598   -0.4147   -0.2907 C.ar    1  UNL1       -0.0498
     27 H           2.3925   -2.6370    1.9736 H       1  UNL1        0.0623
     28 H           0.5330   -0.9831    2.0037 H       1  UNL1        0.0621
     29 H           0.1439    1.4565    1.7226 H       1  UNL1        0.0563
     30 H           2.5480    3.0021    0.8157 H       1  UNL1        0.0626
     31 H           2.6354    5.2299   -0.4973 H       1  UNL1        0.0693
     32 H          -1.5004    1.7744   -2.0967 H       1  UNL1        0.0331
     33 H          -2.4426    3.2140   -1.4588 H       1  UNL1        0.0331
     34 H          -2.9465    1.0901   -0.1004 H       1  UNL1        0.0430
     35 H          -1.9907    2.3237    0.8528 H       1  UNL1        0.0430
     36 H          -0.0102   -1.0612   -0.5976 H       1  UNL1        0.0476
     37 H          -1.0152   -0.1329   -1.7073 H       1  UNL1        0.0476
     38 H          -3.2812   -0.4048   -1.9219 H       1  UNL1        0.0621
     39 H          -5.2993   -1.7073   -1.4491 H       1  UNL1        0.0618
     40 H          -5.3500   -3.3466    0.4219 H       1  UNL1        0.0618
     41 H          -3.3011   -3.6114    1.7848 H       1  UNL1        0.0618
     42 H          -1.3299   -2.3254    1.3128 H       1  UNL1        0.0621
     43 H           2.5670    1.3394   -0.8914 H       1  UNL1        0.0621
     44 H           4.4118   -0.2419   -0.9451 H       1  UNL1        0.0623
@<TRIPOS>BOND
     1     1     2    1
     2     2     3    1
     3     2     4    1
     4     2     5    1
     5     5     6   ar
     6     6     7   ar
     7     7     8   ar
     8     8     9    1
     9     9    10    1
    10    10    11   ar
    11    11    12   ar
    12    12    13   ar
    13    13    14   ar
    14    14    15    1
    15    15    16    1
    16    16    17    1
    17    17    18    1
    18    18    19    1
    19    19    20   ar
    20    20    21   ar
    21    21    22   ar
    22    22    23   ar
    23    23    24   ar
    24     8    25   ar
    25    25    26   ar
    26    26     5   ar
    27    17     9    1
    28    24    19   ar
    29    14    10   ar
    30     6    27    1
    31     7    28    1
    32     9    29    1
    33    11    30    1
    34    12    31    1
    35    15    32    1
    36    15    33    1
    37    16    34    1
    38    16    35    1
    39    18    36    1
    40    18    37    1
    41    20    38    1
    42    21    39    1
    43    22    40    1
    44    23    41    1
    45    24    42    1
    46    25    43    1
    47    26    44    1
@<TRIPOS>MOLECULE
50934298
 31 33 0 0 0
SMALL
GASTEIGER

@<TRIPOS>ATOM
      1 F           5.3902   -0.7504    0.3627 F       1  UNL1       -0.1659
      2 C           4.7308    0.1445   -0.4385 C.3     1  UNL1        0.4174
      3 F           4.9624   -0.1280   -1.7664 F       1  UNL1       -0.1659
      4 F           5.1259    1.4589   -0.1935 F       1  UNL1       -0.1659
      5 C           3.2677    0.0523   -0.1277 C.ar    1  UNL1        0.0548
      6 C           2.4044   -0.6824   -0.9421 C.ar    1  UNL1       -0.0498
      7 C           1.0695   -0.7497   -0.6338 C.ar    1  UNL1       -0.0562
      8 C           0.5328   -0.1158    0.4596 C.ar    1  UNL1       -0.0260
      9 C          -0.8898   -0.1845    0.7924 C.3     1  UNL1        0.0592
     10 N          -1.3367   -1.5416    0.6645 N.3     1  UNL1       -0.3053
     11 C          -2.6753   -1.5762    1.2697 C.3     1  UNL1        0.0012
     12 C          -3.6033   -1.0161    0.2320 C.3     1  UNL1       -0.0085
     13 C          -2.9651    0.1780   -0.3782 C.ar    1  UNL1       -0.0040
     14 S          -3.6743    1.3161   -1.5322 S.2     1  UNL1       -0.1012
     15 C          -2.1967    2.3602   -1.6676 C.ar    1  UNL1       -0.0237
     16 C          -1.3193    1.7484   -0.8321 C.ar    1  UNL1       -0.0495
     17 C          -1.7263    0.6419   -0.1858 C.ar    1  UNL1       -0.0159
     18 C           1.4203    0.6124    1.2570 C.ar    1  UNL1       -0.0562
     19 C           2.7631    0.6931    0.9660 C.ar    1  UNL1       -0.0498
     20 H           2.8523   -1.1687   -1.7917 H       1  UNL1        0.0623
     21 H           0.4393   -1.3304   -1.2933 H       1  UNL1        0.0621
     22 H          -1.1004    0.2191    1.7829 H       1  UNL1        0.0560
     23 H          -1.4750   -1.8358   -0.3269 H       1  UNL1        0.1228
     24 H          -2.7295   -1.0099    2.2001 H       1  UNL1        0.0428
     25 H          -2.9156   -2.6625    1.4149 H       1  UNL1        0.0428
     26 H          -3.7641   -1.7524   -0.5887 H       1  UNL1        0.0331
     27 H          -4.6172   -0.7712    0.6410 H       1  UNL1        0.0331
     28 H          -2.1528    3.2786   -2.3314 H       1  UNL1        0.0693
     29 H          -0.2913    2.1948   -0.7181 H       1  UNL1        0.0626
     30 H           1.0142    1.1154    2.1185 H       1  UNL1        0.0621
     31 H           3.4599    1.2619    1.5877 H       1  UNL1        0.0623
@<TRIPOS>BOND
     1     1     2    1
     2     2     3    1
     3     2     4    1
     4     2     5    1
     5     5     6   ar
     6     6     7   ar
     7     7     8   ar
     8     8     9    1
     9     9    10    1
    10    10    11    1
    11    11    12    1
    12    12    13    1
    13    13    14   ar
    14    14    15   ar
    15    15    16   ar
    16    16    17   ar
    17     8    18   ar
    18    18    19   ar
    19    19     5   ar
    20    17     9    1
    21    17    13   ar
    22     6    20    1
    23     7    21    1
    24     9    22    1
    25    10    23    1
    26    11    24    1
    27    11    25    1
    28    12    26    1
    29    12    27    1
    30    15    28    1
    31    16    29    1
    32    18    30    1
    33    19    31    1
@<TRIPOS>MOLECULE
50934305
 43 46 0 0 0
SMALL
GASTEIGER

@<TRIPOS>ATOM
      1 O          -0.3873    1.1367   -0.5162 O.2     1  UNL1       -0.2700
      2 C          -1.2117    0.3070    0.0613 C.2     1  UNL1        0.2474
      3 C          -2.5331    0.8325    0.2369 C.ar    1  UNL1        0.0371
      4 C          -2.8067    2.1030   -0.3110 C.ar    1  UNL1       -0.0469
      5 C          -4.0242    2.7137   -0.1918 C.ar    1  UNL1       -0.0257
      6 C          -5.0355    2.0795    0.4850 C.ar    1  UNL1        0.1234
      7 F          -6.2321    2.7101    0.5952 F       1  UNL1       -0.2055
      8 C          -4.8310    0.8391    1.0415 C.ar    1  UNL1       -0.0257
      9 C          -3.5775    0.2483    0.9011 C.ar    1  UNL1       -0.0469
     10 N          -0.6493   -0.9173    0.3942 N.am    1  UNL1       -0.2861
     11 C          -1.4172   -2.0121    0.9511 C.3     1  UNL1        0.0204
     12 C          -0.6583   -3.3579    0.8032 C.3     1  UNL1       -0.0052
     13 C          -0.0652   -3.3199   -0.5874 C.ar    1  UNL1       -0.0035
     14 S          -0.0904   -4.2956   -1.9646 S.2     1  UNL1       -0.1012
     15 C           0.8985   -3.2208   -3.0489 C.ar    1  UNL1       -0.0237
     16 C           1.1596   -2.1688   -2.1977 C.ar    1  UNL1       -0.0492
     17 C           0.7179   -2.1471   -0.9599 C.ar    1  UNL1       -0.0124
     18 C           0.7700   -1.2512    0.2375 C.3     1  UNL1        0.0775
     19 C           1.7385   -0.2033    0.2439 C.ar    1  UNL1       -0.0226
     20 C           2.8494   -0.1937   -0.5623 C.ar    1  UNL1       -0.0559
     21 C           3.7930    0.8495   -0.5600 C.ar    1  UNL1       -0.0498
     22 C           3.6548    1.9335    0.2664 C.ar    1  UNL1        0.0548
     23 C           4.6320    3.0532    0.2759 C.3     1  UNL1        0.4174
     24 F           5.9216    2.6339    0.0457 F       1  UNL1       -0.1659
     25 F           4.6229    3.7584    1.4611 F       1  UNL1       -0.1659
     26 F           4.3323    3.9707   -0.7172 F       1  UNL1       -0.1659
     27 C           2.5453    1.9327    1.0861 C.ar    1  UNL1       -0.0498
     28 C           1.6276    0.9173    1.0817 C.ar    1  UNL1       -0.0559
     29 H          -2.0376    2.6551   -0.8578 H       1  UNL1        0.0626
     30 H          -4.2095    3.6974   -0.6278 H       1  UNL1        0.0646
     31 H          -5.6459    0.3417    1.5700 H       1  UNL1        0.0646
     32 H          -3.4731   -0.6932    1.3609 H       1  UNL1        0.0626
     33 H          -2.3045   -2.1938    0.2688 H       1  UNL1        0.0468
     34 H          -1.6357   -1.9055    1.9965 H       1  UNL1        0.0468
     35 H           0.0813   -3.5282    1.5580 H       1  UNL1        0.0334
     36 H          -1.4326   -4.1602    0.7339 H       1  UNL1        0.0334
     37 H           1.1587   -3.4188   -4.0539 H       1  UNL1        0.0693
     38 H           1.7346   -1.3256   -2.6998 H       1  UNL1        0.0626
     39 H           1.0177   -1.9541    1.1228 H       1  UNL1        0.0601
     40 H           3.0997   -1.0319   -1.2125 H       1  UNL1        0.0621
     41 H           4.6555    0.8210   -1.2195 H       1  UNL1        0.0623
     42 H           2.4388    2.8062    1.7480 H       1  UNL1        0.0623
     43 H           0.8086    0.9591    1.7619 H       1  UNL1        0.0621
@<TRIPOS>BOND
     1     1     2    2
     2     2     3    1
     3     3     4   ar
     4     4     5   ar
     5     5     6   ar
     6     6     7    1
     7     6     8   ar
     8     8     9   ar
     9     2    10   am
    10    10    11    1
    11    11    12    1
    12    12    13    1
    13    13    14   ar
    14    14    15   ar
    15    15    16   ar
    16    16    17   ar
    17    17    18    1
    18    18    19    1
    19    19    20   ar
    20    20    21   ar
    21    21    22   ar
    22    22    23    1
    23    23    24    1
    24    23    25    1
    25    23    26    1
    26    22    27   ar
    27    27    28   ar
    28     9     3   ar
    29    18    10    1
    30    28    19   ar
    31    17    13   ar
    32     4    29    1
    33     5    30    1
    34     8    31    1
    35     9    32    1
    36    11    33    1
    37    11    34    1
    38    12    35    1
    39    12    36    1
    40    15    37    1
    41    16    38    1
    42    18    39    1
    43    20    40    1
    44    21    41    1
    45    27    42    1
    46    28    43    1
@<TRIPOS>MOLECULE
50934304
 43 46 0 0 0
SMALL
GASTEIGER

@<TRIPOS>ATOM
      1 O          -3.1054   -0.8503   -1.7048 O.2     1  UNL1       -0.2700
      2 C          -2.1774   -0.5898   -0.8082 C.2     1  UNL1        0.2474
      3 C          -2.5780    0.3724    0.1375 C.ar    1  UNL1        0.0396
      4 C          -2.0887    1.6712    0.2137 C.ar    1  UNL1       -0.0495
      5 C          -2.5235    2.6005    1.1086 C.ar    1  UNL1       -0.0583
      6 C          -3.5043    2.3120    2.0307 C.ar    1  UNL1       -0.0264
      7 C          -4.0239    1.0282    1.9979 C.ar    1  UNL1        0.1241
      8 F          -5.0005    0.7413    2.9147 F       1  UNL1       -0.2055
      9 C          -3.5817    0.1053    1.0939 C.ar    1  UNL1       -0.0143
     10 N          -0.9766   -1.3243   -0.9774 N.am    1  UNL1       -0.2861
     11 C          -1.0316   -2.2347   -2.1430 C.3     1  UNL1        0.0204
     12 C           0.3469   -2.3903   -2.6960 C.3     1  UNL1       -0.0052
     13 C           1.1247   -2.9739   -1.5307 C.ar    1  UNL1       -0.0035
     14 S           2.2153   -4.3311   -1.3806 S.2     1  UNL1       -0.1012
     15 C           2.5227   -4.1378    0.3590 C.ar    1  UNL1       -0.0237
     16 C           1.7639   -3.0442    0.6900 C.ar    1  UNL1       -0.0492
     17 C           1.0510   -2.4633   -0.3051 C.ar    1  UNL1       -0.0124
     18 C           0.1485   -1.2513   -0.1262 C.3     1  UNL1        0.0775
     19 C           0.9043   -0.0133   -0.0137 C.ar    1  UNL1       -0.0226
     20 C           1.4186    0.3914    1.2317 C.ar    1  UNL1       -0.0559
     21 C           2.1274    1.5394    1.4131 C.ar    1  UNL1       -0.0498
     22 C           2.3760    2.3787    0.3490 C.ar    1  UNL1        0.0548
     23 C           3.1743    3.6423    0.5434 C.3     1  UNL1        0.4174
     24 F           4.1850    3.3139    1.4516 F       1  UNL1       -0.1659
     25 F           2.3573    4.6211    1.0496 F       1  UNL1       -0.1659
     26 F           3.8100    4.0108   -0.6307 F       1  UNL1       -0.1659
     27 C           1.8747    1.9935   -0.8811 C.ar    1  UNL1       -0.0498
     28 C           1.1563    0.8257   -1.0529 C.ar    1  UNL1       -0.0559
     29 H          -1.3308    1.9201   -0.5031 H       1  UNL1        0.0625
     30 H          -2.1077    3.5933    1.1209 H       1  UNL1        0.0619
     31 H          -3.8803    3.0322    2.7595 H       1  UNL1        0.0646
     32 H          -4.0076   -0.8791    1.0970 H       1  UNL1        0.0654
     33 H          -1.3291   -3.2153   -1.7056 H       1  UNL1        0.0468
     34 H          -1.7576   -1.8880   -2.8898 H       1  UNL1        0.0468
     35 H           0.7895   -1.4388   -3.0047 H       1  UNL1        0.0334
     36 H           0.3503   -3.1325   -3.5296 H       1  UNL1        0.0334
     37 H           3.1790   -4.7715    0.9691 H       1  UNL1        0.0693
     38 H           1.7949   -2.7132    1.7570 H       1  UNL1        0.0626
     39 H          -0.3299   -1.3793    0.9425 H       1  UNL1        0.0601
     40 H           1.2359   -0.2511    2.0694 H       1  UNL1        0.0621
     41 H           2.5365    1.8668    2.3648 H       1  UNL1        0.0623
     42 H           2.0783    2.6683   -1.7149 H       1  UNL1        0.0623
     43 H           0.8131    0.6446   -2.0659 H       1  UNL1        0.0621
@<TRIPOS>BOND
     1     1     2    2
     2     2     3    1
     3     3     4   ar
     4     4     5   ar
     5     5     6   ar
     6     6     7   ar
     7     7     8    1
     8     7     9   ar
     9     2    10   am
    10    10    11    1
    11    11    12    1
    12    12    13    1
    13    13    14   ar
    14    14    15   ar
    15    15    16   ar
    16    16    17   ar
    17    17    18    1
    18    18    19    1
    19    19    20   ar
    20    20    21   ar
    21    21    22   ar
    22    22    23    1
    23    23    24    1
    24    23    25    1
    25    23    26    1
    26    22    27   ar
    27    27    28   ar
    28     9     3   ar
    29    18    10    1
    30    28    19   ar
    31    17    13   ar
    32     4    29    1
    33     5    30    1
    34     6    31    1
    35     9    32    1
    36    11    33    1
    37    11    34    1
    38    12    35    1
    39    12    36    1
    40    15    37    1
    41    16    38    1
    42    18    39    1
    43    20    40    1
    44    21    41    1
    45    27    42    1
    46    28    43    1
@<TRIPOS>MOLECULE
50934308
 46 49 0 0 0
SMALL
GASTEIGER

@<TRIPOS>ATOM
      1 O           0.3468    1.2579    1.6309 O.2     1  UNL1       -0.2524
      2 C           1.2149    0.5815    0.8789 C.2     1  UNL1        0.3057
      3 N           2.4804    1.1219    0.9218 N.am    1  UNL1       -0.2811
      4 C           3.6820    0.5813    0.3799 C.3     1  UNL1        0.0396
      5 C           4.1591    1.4557   -0.7785 C.3     1  UNL1        0.0635
      6 O           3.7254    2.7756   -0.5283 O.3     1  UNL1       -0.3767
      7 C           3.7917    3.1269    0.8015 C.3     1  UNL1        0.0635
      8 C           2.6331    2.4945    1.5505 C.3     1  UNL1        0.0396
      9 N           0.6582   -0.5327    0.2063 N.am    1  UNL1       -0.2741
     10 C           1.3577   -1.2930   -0.7724 C.3     1  UNL1        0.0215
     11 C           1.7367   -2.5896   -0.0317 C.3     1  UNL1       -0.0052
     12 C           0.3702   -3.1969    0.2045 C.ar    1  UNL1       -0.0035
     13 S          -0.1540   -4.8664    0.1827 S.2     1  UNL1       -0.1012
     14 C          -1.8749   -4.5240    0.5337 C.ar    1  UNL1       -0.0237
     15 C          -1.9118   -3.1765    0.6390 C.ar    1  UNL1       -0.0492
     16 C          -0.7516   -2.4732    0.4705 C.ar    1  UNL1       -0.0123
     17 C          -0.6764   -0.9477    0.5906 C.3     1  UNL1        0.0787
     18 C          -1.7822   -0.2638   -0.0531 C.ar    1  UNL1       -0.0225
     19 C          -1.8792    0.1019   -1.3694 C.ar    1  UNL1       -0.0559
     20 C          -3.0137    0.7473   -1.8494 C.ar    1  UNL1       -0.0498
     21 C          -4.0933    1.0563   -1.0523 C.ar    1  UNL1        0.0548
     22 C          -5.2949    1.7461   -1.5865 C.3     1  UNL1        0.4174
     23 F          -6.2363    1.8089   -0.5777 F       1  UNL1       -0.1659
     24 F          -5.8698    1.0473   -2.6305 F       1  UNL1       -0.1659
     25 F          -5.0069    3.0568   -1.9465 F       1  UNL1       -0.1659
     26 C          -3.9992    0.6888    0.2780 C.ar    1  UNL1       -0.0498
     27 C          -2.8802    0.0521    0.7515 C.ar    1  UNL1       -0.0559
     28 H           3.6500   -0.4388    0.1075 H       1  UNL1        0.0488
     29 H           4.4532    0.7113    1.2369 H       1  UNL1        0.0488
     30 H           5.2469    1.4401   -0.8091 H       1  UNL1        0.0575
     31 H           3.7437    1.1601   -1.7482 H       1  UNL1        0.0575
     32 H           3.7382    4.2310    0.8565 H       1  UNL1        0.0575
     33 H           4.7677    2.8024    1.2204 H       1  UNL1        0.0575
     34 H           2.8076    2.3778    2.6230 H       1  UNL1        0.0488
     35 H           1.7104    3.0266    1.3372 H       1  UNL1        0.0488
     36 H           2.1723   -0.8703   -1.2788 H       1  UNL1        0.0469
     37 H           0.6056   -1.6394   -1.5741 H       1  UNL1        0.0469
     38 H           2.2492   -2.3625    0.8984 H       1  UNL1        0.0334
     39 H           2.2792   -3.2119   -0.7584 H       1  UNL1        0.0334
     40 H          -2.6599   -5.2715    0.6278 H       1  UNL1        0.0693
     41 H          -2.9167   -2.7075    0.8633 H       1  UNL1        0.0626
     42 H          -0.7241   -0.7090    1.7035 H       1  UNL1        0.0602
     43 H          -1.0747   -0.1087   -2.0260 H       1  UNL1        0.0621
     44 H          -3.0809    1.0358   -2.9062 H       1  UNL1        0.0623
     45 H          -4.8215    0.9064    0.9587 H       1  UNL1        0.0623
     46 H          -2.8783   -0.2091    1.8214 H       1  UNL1        0.0621
@<TRIPOS>BOND
     1     1     2    2
     2     2     3   am
     3     3     4    1
     4     4     5    1
     5     5     6    1
     6     6     7    1
     7     7     8    1
     8     2     9   am
     9     9    10    1
    10    10    11    1
    11    11    12    1
    12    12    13   ar
    13    13    14   ar
    14    14    15   ar
    15    15    16   ar
    16    16    17    1
    17    17    18    1
    18    18    19   ar
    19    19    20   ar
    20    20    21   ar
    21    21    22    1
    22    22    23    1
    23    22    24    1
    24    22    25    1
    25    21    26   ar
    26    26    27   ar
    27     8     3    1
    28    17     9    1
    29    27    18   ar
    30    16    12   ar
    31     4    28    1
    32     4    29    1
    33     5    30    1
    34     5    31    1
    35     7    32    1
    36     7    33    1
    37     8    34    1
    38     8    35    1
    39    10    36    1
    40    10    37    1
    41    11    38    1
    42    11    39    1
    43    14    40    1
    44    15    41    1
    45    17    42    1
    46    19    43    1
    47    20    44    1
    48    26    45    1
    49    27    46    1
@<TRIPOS>MOLECULE
50934330
 48 51 0 0 0
SMALL
GASTEIGER

@<TRIPOS>ATOM
      1 O          -0.9683   -0.8073   -0.6420 O.2     1  UNL1       -0.2523
      2 C          -1.2529    0.0412    0.2232 C.2     1  UNL1        0.3072
      3 N          -2.6211    0.3533    0.4438 N.am    1  UNL1       -0.2693
      4 C          -3.7345   -0.2068   -0.2346 C.ar    1  UNL1        0.0349
      5 C          -4.9812    0.2770    0.1752 C.ar    1  UNL1       -0.0377
      6 C          -6.1547   -0.1567   -0.3749 C.ar    1  UNL1       -0.0247
      7 C          -6.0846   -1.1005   -1.3628 C.ar    1  UNL1        0.1235
      8 F          -7.2008   -1.5855   -1.9623 F       1  UNL1       -0.2055
      9 C          -4.8776   -1.5989   -1.7911 C.ar    1  UNL1       -0.0247
     10 C          -3.6812   -1.1511   -1.2243 C.ar    1  UNL1       -0.0377
     11 N          -0.2288    0.6532    0.9447 N.am    1  UNL1       -0.2740
     12 C          -0.5997    1.7478    1.8746 C.3     1  UNL1        0.0211
     13 C           0.5912    2.7044    2.0912 C.3     1  UNL1       -0.0114
     14 C           1.2889    2.8124    0.7988 C.ar    1  UNL1       -0.0406
     15 C           1.5948    3.9988    0.1796 C.ar    1  UNL1       -0.0582
     16 C           2.2147    4.0065   -1.0788 C.ar    1  UNL1       -0.0615
     17 C           2.5317    2.8380   -1.7257 C.ar    1  UNL1       -0.0614
     18 C           2.2158    1.6237   -1.0860 C.ar    1  UNL1       -0.0562
     19 C           1.6223    1.6198    0.1248 C.ar    1  UNL1       -0.0193
     20 C           1.1878    0.4252    0.9204 C.3     1  UNL1        0.0782
     21 C           1.8012   -0.7875    0.5477 C.ar    1  UNL1       -0.0225
     22 C           1.2247   -2.0562    0.6628 C.ar    1  UNL1       -0.0559
     23 C           1.9113   -3.1985    0.3218 C.ar    1  UNL1       -0.0498
     24 C           3.2072   -3.1606   -0.1513 C.ar    1  UNL1        0.0548
     25 C           3.9519   -4.3976   -0.5226 C.3     1  UNL1        0.4174
     26 F           4.4840   -5.0250    0.6015 F       1  UNL1       -0.1659
     27 F           3.1283   -5.2475   -1.2334 F       1  UNL1       -0.1659
     28 F           5.0206   -4.0734   -1.3377 F       1  UNL1       -0.1659
     29 C           3.7844   -1.9319   -0.2662 C.ar    1  UNL1       -0.0498
     30 C           3.1013   -0.7936    0.0736 C.ar    1  UNL1       -0.0559
     31 H          -2.8165    1.0790    1.2065 H       1  UNL1        0.1564
     32 H          -5.0786    1.0315    0.9614 H       1  UNL1        0.0637
     33 H          -7.1210    0.2059   -0.0704 H       1  UNL1        0.0647
     34 H          -4.7683   -2.3450   -2.5676 H       1  UNL1        0.0647
     35 H          -2.7448   -1.5291   -1.5476 H       1  UNL1        0.0637
     36 H          -0.8993    1.4020    2.8521 H       1  UNL1        0.0468
     37 H          -1.3479    2.3626    1.3212 H       1  UNL1        0.0468
     38 H           1.1738    2.3039    2.9179 H       1  UNL1        0.0328
     39 H           0.0950    3.6764    2.3686 H       1  UNL1        0.0328
     40 H           1.3539    4.9403    0.6698 H       1  UNL1        0.0620
     41 H           2.4533    4.9578   -1.5602 H       1  UNL1        0.0618
     42 H           3.0059    2.8541   -2.6900 H       1  UNL1        0.0618
     43 H           2.4565    0.7545   -1.6752 H       1  UNL1        0.0621
     44 H           1.5293    0.6376    2.0086 H       1  UNL1        0.0601
     45 H           0.2385   -2.2013    1.0591 H       1  UNL1        0.0621
     46 H           1.4604   -4.1912    0.4101 H       1  UNL1        0.0623
     47 H           4.8205   -1.8895   -0.6426 H       1  UNL1        0.0623
     48 H           3.7127    0.1276   -0.0116 H       1  UNL1        0.0621
@<TRIPOS>BOND
     1     1     2    2
     2     2     3   am
     3     3     4    1
     4     4     5   ar
     5     5     6   ar
     6     6     7   ar
     7     7     8    1
     8     7     9   ar
     9     9    10   ar
    10     2    11   am
    11    11    12    1
    12    12    13    1
    13    13    14    1
    14    14    15   ar
    15    15    16   ar
    16    16    17   ar
    17    17    18   ar
    18    18    19   ar
    19    19    20    1
    20    20    21    1
    21    21    22   ar
    22    22    23   ar
    23    23    24   ar
    24    24    25    1
    25    25    26    1
    26    25    27    1
    27    25    28    1
    28    24    29   ar
    29    29    30   ar
    30    10     4   ar
    31    20    11    1
    32    30    21   ar
    33    19    14   ar
    34     3    31    1
    35     5    32    1
    36     6    33    1
    37     9    34    1
    38    10    35    1
    39    12    36    1
    40    12    37    1
    41    13    38    1
    42    13    39    1
    43    15    40    1
    44    16    41    1
    45    17    42    1
    46    18    43    1
    47    20    44    1
    48    22    45    1
    49    23    46    1
    50    29    47    1
    51    30    48    1
@<TRIPOS>MOLECULE
50934327
 51 54 0 0 0
SMALL
GASTEIGER

@<TRIPOS>ATOM
      1 O           1.5174   -0.5367    1.1900 O.2     1  UNL1       -0.2523
      2 C           1.5486   -0.0197    0.0454 C.2     1  UNL1        0.3072
      3 N           2.7163   -0.2277   -0.7163 N.am    1  UNL1       -0.2693
      4 C           3.8166   -0.9918   -0.2096 C.ar    1  UNL1        0.0349
      5 C           4.8357   -0.3713    0.5014 C.ar    1  UNL1       -0.0377
      6 C           5.8998   -1.0872    0.9955 C.ar    1  UNL1       -0.0247
      7 C           5.9489   -2.4560    0.7751 C.ar    1  UNL1        0.1235
      8 F           6.9753   -3.1950    1.2430 F       1  UNL1       -0.2055
      9 C           4.9552   -3.0877    0.0771 C.ar    1  UNL1       -0.0247
     10 C           3.8999   -2.3511   -0.4082 C.ar    1  UNL1       -0.0377
     11 N           0.4295    0.7501   -0.4531 N.am    1  UNL1       -0.2743
     12 C           0.6893    1.2416   -1.7657 C.3     1  UNL1        0.0174
     13 C          -0.3385    2.1308   -2.3628 C.3     1  UNL1       -0.0331
     14 C          -0.6050    3.3663   -1.5322 C.3     1  UNL1       -0.0259
     15 C          -1.4860    3.0731   -0.3955 C.ar    1  UNL1       -0.0420
     16 C          -2.4063    4.1124   -0.2559 C.ar    1  UNL1       -0.0582
     17 C          -3.3528    4.0860    0.7387 C.ar    1  UNL1       -0.0615
     18 C          -3.3699    3.0106    1.5919 C.ar    1  UNL1       -0.0614
     19 C          -2.4427    1.9867    1.4333 C.ar    1  UNL1       -0.0562
     20 C          -1.4878    1.9972    0.4426 C.ar    1  UNL1       -0.0194
     21 C          -0.6450    0.8056    0.5066 C.3     1  UNL1        0.0782
     22 C          -1.4262   -0.4674    0.5211 C.ar    1  UNL1       -0.0225
     23 C          -1.8952   -1.0009   -0.6703 C.ar    1  UNL1       -0.0559
     24 C          -2.6095   -2.1798   -0.6878 C.ar    1  UNL1       -0.0498
     25 C          -2.8873   -2.8760    0.4702 C.ar    1  UNL1        0.0548
     26 C          -3.6574   -4.1494    0.4646 C.3     1  UNL1        0.4174
     27 F          -3.4766   -4.8370    1.6309 F       1  UNL1       -0.1659
     28 F          -4.9884   -3.9295    0.2231 F       1  UNL1       -0.1659
     29 F          -3.1561   -4.9406   -0.5617 F       1  UNL1       -0.1659
     30 C          -2.4224   -2.3447    1.6367 C.ar    1  UNL1       -0.0498
     31 C          -1.7075   -1.1688    1.6731 C.ar    1  UNL1       -0.0559
     32 H           2.8155    0.1648   -1.6674 H       1  UNL1        0.1564
     33 H           4.7868    0.6855    0.6650 H       1  UNL1        0.0637
     34 H           6.7169   -0.6623    1.5524 H       1  UNL1        0.0647
     35 H           5.0078   -4.1503   -0.0855 H       1  UNL1        0.0647
     36 H           3.1344   -2.8598   -0.9500 H       1  UNL1        0.0637
     37 H           0.8693    0.3967   -2.4461 H       1  UNL1        0.0465
     38 H           1.6590    1.8242   -1.7548 H       1  UNL1        0.0465
     39 H          -1.2926    1.6772   -2.6211 H       1  UNL1        0.0283
     40 H           0.0959    2.5130   -3.3333 H       1  UNL1        0.0283
     41 H          -1.1175    4.0787   -2.2080 H       1  UNL1        0.0314
     42 H           0.3488    3.8309   -1.1872 H       1  UNL1        0.0314
     43 H          -2.4002    4.9604   -0.9211 H       1  UNL1        0.0620
     44 H          -4.0793    4.8941    0.8584 H       1  UNL1        0.0618
     45 H          -4.1134    2.9975    2.3671 H       1  UNL1        0.0618
     46 H          -2.5114    1.1882    2.1240 H       1  UNL1        0.0621
     47 H          -0.1499    0.8393    1.5248 H       1  UNL1        0.0601
     48 H          -1.6771   -0.4515   -1.5962 H       1  UNL1        0.0621
     49 H          -2.9679   -2.5800   -1.6344 H       1  UNL1        0.0623
     50 H          -2.6331   -2.8806    2.5534 H       1  UNL1        0.0623
     51 H          -1.3638   -0.8077    2.6190 H       1  UNL1        0.0621
@<TRIPOS>BOND
     1     1     2    2
     2     2     3   am
     3     3     4    1
     4     4     5   ar
     5     5     6   ar
     6     6     7   ar
     7     7     8    1
     8     7     9   ar
     9     9    10   ar
    10     2    11   am
    11    11    12    1
    12    12    13    1
    13    13    14    1
    14    14    15    1
    15    15    16   ar
    16    16    17   ar
    17    17    18   ar
    18    18    19   ar
    19    19    20   ar
    20    20    21    1
    21    21    22    1
    22    22    23   ar
    23    23    24   ar
    24    24    25   ar
    25    25    26    1
    26    26    27    1
    27    26    28    1
    28    26    29    1
    29    25    30   ar
    30    30    31   ar
    31    10     4   ar
    32    21    11    1
    33    31    22   ar
    34    20    15   ar
    35     3    32    1
    36     5    33    1
    37     6    34    1
    38     9    35    1
    39    10    36    1
    40    12    37    1
    41    12    38    1
    42    13    39    1
    43    13    40    1
    44    14    41    1
    45    14    42    1
    46    16    43    1
    47    17    44    1
    48    18    45    1
    49    19    46    1
    50    21    47    1
    51    23    48    1
    52    24    49    1
    53    30    50    1
    54    31    51    1
@<TRIPOS>MOLECULE
50934286
 32 34 0 0 0
SMALL
GASTEIGER

@<TRIPOS>ATOM
      1 O           0.4845   -0.9429    1.1539 O.2     1  UNL1       -0.2523
      2 C           0.1709   -0.6394   -0.0331 C.2     1  UNL1        0.3067
      3 N           1.2148   -0.1163   -0.8285 N.am    1  UNL1       -0.2693
      4 C           2.5444    0.0691   -0.3529 C.ar    1  UNL1        0.0348
      5 C           3.4826   -0.9339   -0.4709 C.ar    1  UNL1       -0.0404
      6 C           4.7922   -0.7623   -0.0068 C.ar    1  UNL1       -0.0600
      7 C           5.1831    0.4190    0.5839 C.ar    1  UNL1       -0.0616
      8 C           4.2383    1.4149    0.6972 C.ar    1  UNL1       -0.0600
      9 C           2.9499    1.2444    0.2399 C.ar    1  UNL1       -0.0404
     10 N          -1.1615   -0.8385   -0.4689 N.am    1  UNL1       -0.2807
     11 C          -1.6483   -0.5379   -1.7851 C.3     1  UNL1        0.0210
     12 C          -2.8232    0.3743   -1.6661 C.3     1  UNL1       -0.0052
     13 C          -3.2686    0.6054   -0.2989 C.ar    1  UNL1       -0.0041
     14 S          -4.2571    1.9173    0.3849 S.2     1  UNL1       -0.1012
     15 C          -4.2558    1.3444    2.0646 C.ar    1  UNL1       -0.0238
     16 C          -3.5167    0.2179    1.9826 C.ar    1  UNL1       -0.0498
     17 C          -3.0159   -0.1606    0.7943 C.ar    1  UNL1       -0.0198
     18 C          -2.1524   -1.3897    0.4581 C.3     1  UNL1        0.0419
     19 H           0.9945    0.1455   -1.8125 H       1  UNL1        0.1564
     20 H           3.2145   -1.8706   -0.9268 H       1  UNL1        0.0636
     21 H           5.5236   -1.5765   -0.1118 H       1  UNL1        0.0618
     22 H           6.2045    0.5269    0.9355 H       1  UNL1        0.0618
     23 H           4.5505    2.3329    1.1588 H       1  UNL1        0.0618
     24 H           2.1940    2.0310    0.3264 H       1  UNL1        0.0636
     25 H          -2.0160   -1.5230   -2.2013 H       1  UNL1        0.0468
     26 H          -0.8830   -0.1925   -2.4983 H       1  UNL1        0.0468
     27 H          -3.6709   -0.0065   -2.2657 H       1  UNL1        0.0334
     28 H          -2.5309    1.3447   -2.1659 H       1  UNL1        0.0334
     29 H          -4.7449    1.8236    2.9028 H       1  UNL1        0.0693
     30 H          -3.3272   -0.3926    2.9075 H       1  UNL1        0.0626
     31 H          -1.6761   -1.7961    1.3413 H       1  UNL1        0.0514
     32 H          -2.7939   -2.1321   -0.0383 H       1  UNL1        0.0514
@<TRIPOS>BOND
     1     1     2    2
     2     2     3   am
     3     3     4    1
     4     4     5   ar
     5     5     6   ar
     6     6     7   ar
     7     7     8   ar
     8     8     9   ar
     9     2    10   am
    10    10    11    1
    11    11    12    1
    12    12    13    1
    13    13    14   ar
    14    14    15   ar
    15    15    16   ar
    16    16    17   ar
    17    17    18    1
    18     9     4   ar
    19    18    10    1
    20    17    13   ar
    21     3    19    1
    22     5    20    1
    23     6    21    1
    24     7    22    1
    25     8    23    1
    26     9    24    1
    27    11    25    1
    28    11    26    1
    29    12    27    1
    30    12    28    1
    31    15    29    1
    32    16    30    1
    33    18    31    1
    34    18    32    1
@<TRIPOS>MOLECULE
CHEMBL4517528
 33 34 0 0 0
SMALL
GASTEIGER

@<TRIPOS>ATOM
      1 O           0.6564    1.2499    0.8259 O.2     1  UNL1       -0.2705
      2 C           0.4210    0.0898    0.4123 C.2     1  UNL1        0.2411
      3 C          -0.9371   -0.3018   -0.0471 C.2     1  UNL1        0.0011
      4 C          -1.9192    0.5598   -0.0292 C.2     1  UNL1       -0.0483
      5 C          -3.2853    0.3458   -0.4361 C.ar    1  UNL1       -0.0065
      6 C          -4.1824    1.4347   -0.3273 C.ar    1  UNL1       -0.0532
      7 C          -5.5002    1.3270   -0.6897 C.ar    1  UNL1       -0.0611
      8 C          -6.0351    0.1657   -1.1788 C.ar    1  UNL1       -0.0603
      9 C          -5.1923   -0.9018   -1.2947 C.ar    1  UNL1       -0.0428
     10 C          -3.8321   -0.7932   -0.9213 C.ar    1  UNL1        0.0481
     11 CL         -2.8881   -2.2386   -1.1276 Cl      1  UNL1       -0.0829
     12 N           1.4876   -0.8437    0.3935 N.am    1  UNL1       -0.2812
     13 C           2.8172   -0.5226    0.8241 C.ar    1  UNL1        0.0477
     14 C           3.1337   -0.7237    2.1504 C.ar    1  UNL1       -0.0397
     15 C           4.3774   -0.4513    2.6766 C.ar    1  UNL1       -0.0600
     16 C           5.3221    0.0457    1.7974 C.ar    1  UNL1       -0.0609
     17 C           5.0264    0.2536    0.4704 C.ar    1  UNL1       -0.0460
     18 C           3.7661   -0.0295   -0.0316 C.ar    1  UNL1        0.0800
     19 C           3.4230    0.1784   -1.4249 C.2     1  UNL1        0.3386
     20 O           4.2742    0.6280   -2.2247 O.2     1  UNL1       -0.2451
     21 O           2.1619   -0.1176   -1.8711 O.3     1  UNL1       -0.4771
     22 H          -1.0954   -1.2908   -0.3891 H       1  UNL1        0.0670
     23 H          -1.6292    1.5732    0.3533 H       1  UNL1        0.0625
     24 H          -3.7760    2.3615    0.0579 H       1  UNL1        0.0624
     25 H          -6.1781    2.1716   -0.6008 H       1  UNL1        0.0618
     26 H          -7.0779    0.1189   -1.4538 H       1  UNL1        0.0618
     27 H          -5.5913   -1.8260   -1.6772 H       1  UNL1        0.0632
     28 H           1.3360   -1.8173    0.0579 H       1  UNL1        0.1551
     29 H           2.3867   -1.1167    2.8454 H       1  UNL1        0.0636
     30 H           4.6430   -0.6029    3.7137 H       1  UNL1        0.0618
     31 H           6.3316    0.2875    2.1334 H       1  UNL1        0.0618
     32 H           5.7658    0.6418   -0.2144 H       1  UNL1        0.0626
     33 H           1.7895    0.1449   -2.7729 H       1  UNL1        0.2954
@<TRIPOS>BOND
     1     1     2    2
     2     2     3    1
     3     3     4    2
     4     4     5    1
     5     5     6   ar
     6     6     7   ar
     7     7     8   ar
     8     8     9   ar
     9     9    10   ar
    10    10    11    1
    11     2    12   am
    12    12    13    1
    13    13    14   ar
    14    14    15   ar
    15    15    16   ar
    16    16    17   ar
    17    17    18   ar
    18    18    19    1
    19    19    20    2
    20    19    21    1
    21    10     5   ar
    22    18    13   ar
    23     3    22    1
    24     4    23    1
    25     6    24    1
    26     7    25    1
    27     8    26    1
    28     9    27    1
    29    12    28    1
    30    14    29    1
    31    15    30    1
    32    16    31    1
    33    17    32    1
    34    21    33    1
@<TRIPOS>MOLECULE
77379
 24 25 0 0 0
SMALL
GASTEIGER

@<TRIPOS>ATOM
      1 N          -3.2471   -0.2438    0.6489 N.3     1  UNL1       -0.3297
      2 C          -2.8594    0.9419   -0.0859 C.3     1  UNL1       -0.0029
      3 C          -1.3907    1.2647    0.2210 C.3     1  UNL1       -0.0133
      4 C          -0.5555    0.1148   -0.1958 C.ar    1  UNL1       -0.0211
      5 C          -0.9659   -1.0656   -0.7804 C.ar    1  UNL1        0.0059
      6 N           0.1430   -1.8001   -0.9763 N.ar    1  UNL1       -0.3604
      7 C           1.2265   -1.1337   -0.5414 C.ar    1  UNL1        0.0468
      8 C           2.5851   -1.4217   -0.5044 C.ar    1  UNL1       -0.0364
      9 C           3.4960   -0.5235    0.0141 C.ar    1  UNL1       -0.0414
     10 C           3.0851    0.6982    0.5164 C.ar    1  UNL1        0.0417
     11 CL          4.2459    1.8445    1.1784 Cl      1  UNL1       -0.0835
     12 C           1.7407    0.9910    0.4835 C.ar    1  UNL1       -0.0340
     13 C           0.8301    0.0877   -0.0374 C.ar    1  UNL1        0.0042
     14 H          -3.9896    0.0030    1.3363 H       1  UNL1        0.1182
     15 H          -2.4093   -0.6115    1.1928 H       1  UNL1        0.1182
     16 H          -3.5151    1.7770    0.2220 H       1  UNL1        0.0425
     17 H          -3.0008    0.8015   -1.1707 H       1  UNL1        0.0425
     18 H          -1.1540    2.1692   -0.3791 H       1  UNL1        0.0326
     19 H          -1.2488    1.4220    1.3012 H       1  UNL1        0.0326
     20 H          -1.9583   -1.3636   -1.0374 H       1  UNL1        0.0810
     21 H           0.1375   -2.7561   -1.4097 H       1  UNL1        0.1653
     22 H           2.8947   -2.3894   -0.9042 H       1  UNL1        0.0639
     23 H           4.5454   -0.7399    0.0452 H       1  UNL1        0.0633
     24 H           1.3646    1.9336    0.8638 H       1  UNL1        0.0639
@<TRIPOS>BOND
     1     1     2    1
     2     2     3    1
     3     3     4    1
     4     4     5   ar
     5     5     6   ar
     6     6     7   ar
     7     7     8   ar
     8     8     9   ar
     9     9    10   ar
    10    10    11    1
    11    10    12   ar
    12    12    13   ar
    13    13     4   ar
    14    13     7   ar
    15     1    14    1
    16     1    15    1
    17     2    16    1
    18     2    17    1
    19     3    18    1
    20     3    19    1
    21     5    20    1
    22     6    21    1
    23     8    22    1
    24     9    23    1
    25    12    24    1
@<TRIPOS>MOLECULE
2831519
 47 49 0 0 0
SMALL
GASTEIGER

@<TRIPOS>ATOM
      1 C           5.3648   -2.6004   -2.0037 C.3     1  UNL1       -0.0305
      2 C           6.1727   -1.3467   -1.7728 C.3     1  UNL1        0.0912
      3 O           5.4573   -0.3728   -1.0346 O.3     1  UNL1       -0.4507
      4 C           4.2743    0.2017   -1.4376 C.2     1  UNL1        0.4003
      5 O           3.7673   -0.1364   -2.5274 O.2     1  UNL1       -0.2265
      6 N           3.5997    1.1780   -0.6511 N.am    1  UNL1       -0.2808
      7 C           2.3499    1.8044   -1.0538 C.3     1  UNL1        0.0188
      8 C           1.8948    2.7926   -0.0187 C.3     1  UNL1       -0.0100
      9 C           1.6703    2.0939    1.2733 C.ar    1  UNL1       -0.0208
     10 C           2.4891    2.0628    2.3785 C.ar    1  UNL1        0.0060
     11 N           1.8710    1.3007    3.2908 N.ar    1  UNL1       -0.3604
     12 C           0.7002    0.8517    2.8084 C.ar    1  UNL1        0.0470
     13 C          -0.3143    0.0496    3.3209 C.ar    1  UNL1       -0.0343
     14 C          -1.4419   -0.2571    2.5900 C.ar    1  UNL1       -0.0179
     15 C          -1.6137    0.2221    1.3086 C.ar    1  UNL1        0.1217
     16 O          -2.7387   -0.0690    0.5490 O.3     1  UNL1       -0.4874
     17 C          -3.8068   -0.8750    1.0008 C.3     1  UNL1        0.1146
     18 C          -4.8294   -0.9408   -0.1039 C.ar    1  UNL1       -0.0104
     19 C          -5.8548   -0.0322   -0.1871 C.ar    1  UNL1       -0.0554
     20 C          -6.8092   -0.0636   -1.2007 C.ar    1  UNL1       -0.0614
     21 C          -6.7229   -1.0434   -2.1578 C.ar    1  UNL1       -0.0617
     22 C          -5.7021   -1.9833   -2.1128 C.ar    1  UNL1       -0.0614
     23 C          -4.7828   -1.9113   -1.0922 C.ar    1  UNL1       -0.0554
     24 C          -0.5933    1.0175    0.8170 C.ar    1  UNL1       -0.0105
     25 C           0.5439    1.3347    1.5370 C.ar    1  UNL1        0.0063
     26 H           6.0861   -3.4616   -2.0125 H       1  UNL1        0.0262
     27 H           4.7123   -2.7335   -1.0916 H       1  UNL1        0.0262
     28 H           4.7590   -2.5743   -2.9313 H       1  UNL1        0.0262
     29 H           7.0451   -1.6222   -1.1411 H       1  UNL1        0.0695
     30 H           6.5645   -0.9107   -2.7143 H       1  UNL1        0.0695
     31 H           3.9939    1.4922    0.2824 H       1  UNL1        0.1520
     32 H           1.5555    1.0027   -1.1118 H       1  UNL1        0.0466
     33 H           2.4433    2.2535   -2.0540 H       1  UNL1        0.0466
     34 H           2.6029    3.6129    0.1481 H       1  UNL1        0.0329
     35 H           0.9282    3.2226   -0.3557 H       1  UNL1        0.0329
     36 H           3.4625    2.5714    2.4778 H       1  UNL1        0.0810
     37 H           2.2607    1.0954    4.2402 H       1  UNL1        0.1653
     38 H          -0.1487   -0.3143    4.3356 H       1  UNL1        0.0639
     39 H          -2.1898   -0.8747    3.0277 H       1  UNL1        0.0655
     40 H          -3.3968   -1.8917    1.1729 H       1  UNL1        0.0748
     41 H          -4.2617   -0.5155    1.9284 H       1  UNL1        0.0748
     42 H          -5.9341    0.7549    0.5728 H       1  UNL1        0.0621
     43 H          -7.5886    0.6884   -1.1969 H       1  UNL1        0.0618
     44 H          -7.4489   -1.0923   -2.9556 H       1  UNL1        0.0618
     45 H          -5.6930   -2.7271   -2.8966 H       1  UNL1        0.0618
     46 H          -3.9756   -2.6510   -1.0517 H       1  UNL1        0.0621
     47 H          -0.7220    1.3968   -0.1930 H       1  UNL1        0.0661
@<TRIPOS>BOND
     1     1     2    1
     2     2     3    1
     3     3     4    1
     4     4     5    2
     5     4     6   am
     6     6     7    1
     7     7     8    1
     8     8     9    1
     9     9    10   ar
    10    10    11   ar
    11    11    12   ar
    12    12    13   ar
    13    13    14   ar
    14    14    15   ar
    15    15    16    1
    16    16    17    1
    17    17    18    1
    18    18    19   ar
    19    19    20   ar
    20    20    21   ar
    21    21    22   ar
    22    22    23   ar
    23    15    24   ar
    24    24    25   ar
    25    25     9   ar
    26    25    12   ar
    27    23    18   ar
    28     1    26    1
    29     1    27    1
    30     1    28    1
    31     2    29    1
    32     2    30    1
    33     6    31    1
    34     7    32    1
    35     7    33    1
    36     8    34    1
    37     8    35    1
    38    10    36    1
    39    11    37    1
    40    13    38    1
    41    14    39    1
    42    17    40    1
    43    17    41    1
    44    19    42    1
    45    20    43    1
    46    21    44    1
    47    22    45    1
    48    23    46    1
    49    24    47    1
@<TRIPOS>MOLECULE
50333143
 45 47 0 0 0
SMALL
GASTEIGER

@<TRIPOS>ATOM
      1 C          -4.4836   -2.6375    0.5666 C.3     1  UNL1       -0.0495
      2 C          -3.4438   -2.1819    1.5967 C.3     1  UNL1        0.0091
      3 N          -3.3582   -0.7445    1.4583 N.am    1  UNL1       -0.3116
      4 C          -2.9855   -0.0651    0.2711 C.2     1  UNL1        0.2459
      5 O          -2.7090   -0.7411   -0.7391 O.2     1  UNL1       -0.2701
      6 C          -2.9269    1.3808    0.2277 C.ar    1  UNL1        0.0581
      7 C          -4.0819    2.1479    0.4635 C.ar    1  UNL1       -0.0478
      8 C          -4.0505    3.5225    0.4502 C.ar    1  UNL1       -0.0609
      9 C          -2.8376    4.1309    0.1957 C.ar    1  UNL1       -0.0600
     10 C          -1.6859    3.4372   -0.0403 C.ar    1  UNL1       -0.0395
     11 C          -1.7556    2.0385   -0.0195 C.ar    1  UNL1        0.0502
     12 N          -0.5201    1.3395   -0.2671 N.am    1  UNL1       -0.2507
     13 C          -0.0572    1.1008   -1.6036 C.3     1  UNL1        0.0414
     14 C           1.2588    0.4230   -1.6296 C.2     1  UNL1       -0.0445
     15 C           1.9744    0.0324   -0.6077 C.2     1  UNL1        0.0397
     16 C           3.2742   -0.6338   -0.8188 C.ar    1  UNL1        0.0024
     17 C           3.8114   -0.8870   -2.0513 C.ar    1  UNL1       -0.0524
     18 C           5.0537   -1.5183   -2.2228 C.ar    1  UNL1       -0.0547
     19 C           5.7687   -1.9015   -1.1189 C.ar    1  UNL1        0.0156
     20 C           5.2489   -1.6571    0.1334 C.ar    1  UNL1        0.2738
     21 N           5.9777   -2.0468    1.2651 N.pl3   1  UNL1        0.0796
     22 O           7.0819   -2.6032    1.1398 O.2     1  UNL1        0.0414
     23 O           5.4485   -1.8016    2.5133 O.co2   1  UNL1       -0.5760
     24 C           3.9942   -1.0200    0.2848 C.ar    1  UNL1        0.0245
     25 N           1.4831    0.2700    0.7008 N.am    1  UNL1       -0.2687
     26 C           0.2348    0.9244    0.8555 C.2     1  UNL1        0.3110
     27 O          -0.2357    1.1532    2.0118 O.2     1  UNL1       -0.2519
     28 H          -4.9847   -3.5216    1.0059 H       1  UNL1        0.0245
     29 H          -3.9672   -2.8445   -0.3925 H       1  UNL1        0.0245
     30 H          -5.2417   -1.8415    0.3877 H       1  UNL1        0.0245
     31 H          -2.5207   -2.7168    1.3522 H       1  UNL1        0.0459
     32 H          -3.8200   -2.4085    2.6160 H       1  UNL1        0.0459
     33 H          -3.5829   -0.1122    2.2844 H       1  UNL1        0.1490
     34 H          -4.9955    1.6046    0.6558 H       1  UNL1        0.0626
     35 H          -4.9574    4.1061    0.6353 H       1  UNL1        0.0618
     36 H          -2.8006    5.2200    0.1828 H       1  UNL1        0.0618
     37 H          -0.7196    3.9196   -0.2437 H       1  UNL1        0.0636
     38 H          -0.7520    0.4267   -2.1832 H       1  UNL1        0.0513
     39 H           0.0628    2.0554   -2.1747 H       1  UNL1        0.0513
     40 H           1.6620    0.2393   -2.6441 H       1  UNL1        0.0606
     41 H           3.2791   -0.6010   -2.9418 H       1  UNL1        0.0624
     42 H           5.4660   -1.7117   -3.2019 H       1  UNL1        0.0620
     43 H           6.7434   -2.3961   -1.2145 H       1  UNL1        0.0685
     44 H           3.6539   -0.8649    1.2979 H       1  UNL1        0.0692
     45 H           1.9962   -0.0145    1.5645 H       1  UNL1        0.1564
@<TRIPOS>UNITY_ATOM_ATTR
21 1
charge 1
23 1
charge -1
@<TRIPOS>BOND
     1     1     2    1
     2     2     3    1
     3     3     4   am
     4     4     5    2
     5     4     6    1
     6     6     7   ar
     7     7     8   ar
     8     8     9   ar
     9     9    10   ar
    10    10    11   ar
    11    11    12    1
    12    12    13    1
    13    13    14    1
    14    14    15    2
    15    15    16    1
    16    16    17   ar
    17    17    18   ar
    18    18    19   ar
    19    19    20   ar
    20    20    21    1
    21    21    22    2
    22    21    23    1
    23    20    24   ar
    24    15    25    1
    25    25    26   am
    26    26    27    2
    27    11     6   ar
    28    26    12   am
    29    24    16   ar
    30     1    28    1
    31     1    29    1
    32     1    30    1
    33     2    31    1
    34     2    32    1
    35     3    33    1
    36     7    34    1
    37     8    35    1
    38     9    36    1
    39    10    37    1
    40    13    38    1
    41    13    39    1
    42    14    40    1
    43    17    41    1
    44    18    42    1
    45    19    43    1
    46    24    44    1
    47    25    45    1
@<TRIPOS>MOLECULE
51345605
 51 54 0 0 0
SMALL
GASTEIGER

@<TRIPOS>ATOM
      1 O          -4.6286    3.6819   -1.6025 O.2     1  UNL1       -0.2510
      2 C          -3.7526    4.3281   -0.9497 C.2     1  UNL1        0.3048
      3 O          -3.7974    5.7103   -1.0136 O.3     1  UNL1       -0.4806
      4 C          -2.7438    3.5728   -0.1653 C.3     1  UNL1        0.0465
      5 C          -2.9730    2.0857   -0.3066 C.3     1  UNL1       -0.0220
      6 C          -1.9919    1.2587    0.4574 C.3     1  UNL1        0.0494
      7 N          -0.6192    1.4375    0.0884 N.3     1  UNL1       -0.2973
      8 C           0.1480    0.4476    0.8200 C.3     1  UNL1        0.0893
      9 C           1.5906    0.8299    0.8955 C.2     1  UNL1        0.2307
     10 O           2.0021    1.8837    0.3451 O.2     1  UNL1       -0.2741
     11 N           2.5398    0.0329    1.5815 N.am    1  UNL1       -0.3099
     12 C           3.9270    0.3042    1.7095 C.3     1  UNL1        0.0369
     13 C           4.7639   -0.0006    0.5438 C.ar    1  UNL1       -0.0302
     14 C           5.3234   -1.2434    0.3125 C.ar    1  UNL1       -0.0544
     15 C           6.1073   -1.4573   -0.8011 C.ar    1  UNL1       -0.0261
     16 C           6.3686   -0.4614   -1.7230 C.ar    1  UNL1        0.1234
     17 F           7.1257   -0.6180   -2.8240 F       1  UNL1       -0.2055
     18 C           5.8091    0.7755   -1.4878 C.ar    1  UNL1       -0.0261
     19 C           5.0229    0.9881   -0.3699 C.ar    1  UNL1       -0.0544
     20 C          -0.0111   -0.9342    0.1693 C.3     1  UNL1       -0.0014
     21 C          -1.4778   -1.1976    0.1529 C.ar    1  UNL1       -0.0156
     22 C          -2.3718   -0.1798    0.2869 C.ar    1  UNL1        0.0375
     23 N          -3.6035   -0.7455    0.2320 N.ar    1  UNL1       -0.3565
     24 C          -3.5261   -2.0665    0.0704 C.ar    1  UNL1        0.0470
     25 C          -4.5235   -3.0095   -0.0327 C.ar    1  UNL1       -0.0378
     26 C          -4.1918   -4.3281   -0.1969 C.ar    1  UNL1       -0.0598
     27 C          -2.8392   -4.6580   -0.2527 C.ar    1  UNL1       -0.0611
     28 C          -1.8500   -3.7072   -0.1486 C.ar    1  UNL1       -0.0523
     29 C          -2.1916   -2.3694    0.0181 C.ar    1  UNL1        0.0032
     30 H          -4.7136    6.1750   -0.9269 H       1  UNL1        0.2951
     31 H          -2.6928    3.8945    0.8825 H       1  UNL1        0.0378
     32 H          -1.7456    3.7911   -0.6421 H       1  UNL1        0.0378
     33 H          -3.9816    1.8862    0.1143 H       1  UNL1        0.0289
     34 H          -3.0154    1.7697   -1.3649 H       1  UNL1        0.0289
     35 H          -2.0618    1.4506    1.5620 H       1  UNL1        0.0525
     36 H          -0.4755    1.2533   -0.9315 H       1  UNL1        0.1233
     37 H          -0.3141    0.3525    1.8227 H       1  UNL1        0.0560
     38 H           2.1587   -0.8534    2.0379 H       1  UNL1        0.1491
     39 H           4.3310   -0.3059    2.5661 H       1  UNL1        0.0512
     40 H           4.1002    1.3877    1.9667 H       1  UNL1        0.0512
     41 H           5.1155   -2.0201    1.0397 H       1  UNL1        0.0622
     42 H           6.5493   -2.4244   -0.9920 H       1  UNL1        0.0646
     43 H           5.9912    1.5734   -2.1852 H       1  UNL1        0.0646
     44 H           4.6286    2.0019   -0.2637 H       1  UNL1        0.0622
     45 H           0.4691   -1.6504    0.8662 H       1  UNL1        0.0334
     46 H           0.4368   -0.9589   -0.8270 H       1  UNL1        0.0334
     47 H          -4.4813   -0.2081    0.3077 H       1  UNL1        0.1656
     48 H          -5.5750   -2.7343    0.0133 H       1  UNL1        0.0638
     49 H          -4.9633   -5.0799   -0.2794 H       1  UNL1        0.0618
     50 H          -2.5821   -5.6986   -0.3821 H       1  UNL1        0.0618
     51 H          -0.8140   -3.9623   -0.1914 H       1  UNL1        0.0624
@<TRIPOS>BOND
     1     1     2    2
     2     2     3    1
     3     2     4    1
     4     4     5    1
     5     5     6    1
     6     6     7    1
     7     7     8    1
     8     8     9    1
     9     9    10    2
    10     9    11   am
    11    11    12    1
    12    12    13    1
    13    13    14   ar
    14    14    15   ar
    15    15    16   ar
    16    16    17    1
    17    16    18   ar
    18    18    19   ar
    19     8    20    1
    20    20    21    1
    21    21    22   ar
    22    22    23   ar
    23    23    24   ar
    24    24    25   ar
    25    25    26   ar
    26    26    27   ar
    27    27    28   ar
    28    28    29   ar
    29    22     6    1
    30    29    24   ar
    31    19    13   ar
    32    29    21   ar
    33     3    30    1
    34     4    31    1
    35     4    32    1
    36     5    33    1
    37     5    34    1
    38     6    35    1
    39     7    36    1
    40     8    37    1
    41    11    38    1
    42    12    39    1
    43    12    40    1
    44    14    41    1
    45    15    42    1
    46    18    43    1
    47    19    44    1
    48    20    45    1
    49    20    46    1
    50    23    47    1
    51    25    48    1
    52    26    49    1
    53    27    50    1
    54    28    51    1
@<TRIPOS>MOLECULE
50162263
 57 59 0 0 0
SMALL
GASTEIGER

@<TRIPOS>ATOM
      1 C          -4.2497   -2.3266   -1.4637 C.3     1  UNL1       -0.0624
      2 C          -3.5452   -2.2411   -0.1559 C.3     1  UNL1       -0.0422
      3 C          -4.0366   -3.2059    0.8697 C.3     1  UNL1       -0.0624
      4 C          -3.5339   -0.8159    0.4195 C.3     1  UNL1       -0.0202
      5 C          -4.9218   -0.3579    0.6220 C.3     1  UNL1       -0.0481
      6 C          -5.5476    0.4027   -0.4883 C.3     1  UNL1       -0.0501
      7 C          -4.6221    1.5298   -0.8594 C.3     1  UNL1       -0.0422
      8 C          -4.6654    2.5968    0.2241 C.3     1  UNL1       -0.0624
      9 C          -3.2544    1.0959   -1.2128 C.3     1  UNL1       -0.0316
     10 C          -2.6236    0.0857   -0.3270 C.3     1  UNL1        0.0279
     11 N          -1.6571    0.7202    0.5534 N.am    1  UNL1       -0.2963
     12 C          -0.2616    0.4812    0.4900 C.2     1  UNL1        0.2999
     13 O           0.1301   -0.3302   -0.3879 O.2     1  UNL1       -0.2529
     14 N           0.6884    1.0793    1.3258 N.am    1  UNL1       -0.2990
     15 C           2.0884    0.7784    1.1905 C.3     1  UNL1        0.0184
     16 C           2.6673    1.1143   -0.1490 C.3     1  UNL1        0.0032
     17 C           4.1122    0.7408   -0.1104 C.ar    1  UNL1        0.0185
     18 C           4.7125   -0.4566   -0.4391 C.ar    1  UNL1       -0.0332
     19 C           6.0647   -0.2922   -0.2332 C.ar    1  UNL1        0.0034
     20 C           7.1006   -1.1568   -0.4029 C.ar    1  UNL1       -0.0110
     21 C           8.3898   -0.7637   -0.1285 C.ar    1  UNL1        0.1175
     22 O           9.4494   -1.6494   -0.3026 O.3     1  UNL1       -0.5067
     23 C           8.6159    0.5102    0.3180 C.ar    1  UNL1       -0.0182
     24 C           7.5639    1.3821    0.4884 C.ar    1  UNL1       -0.0343
     25 C           6.2796    0.9838    0.2128 C.ar    1  UNL1        0.0469
     26 N           5.0842    1.5837    0.2772 N.ar    1  UNL1       -0.3579
     27 H          -4.0110   -1.4860   -2.1131 H       1  UNL1        0.0232
     28 H          -3.8632   -3.2463   -1.9938 H       1  UNL1        0.0232
     29 H          -5.3208   -2.5153   -1.3023 H       1  UNL1        0.0232
     30 H          -2.4579   -2.4686   -0.3451 H       1  UNL1        0.0299
     31 H          -4.1888   -2.7276    1.8673 H       1  UNL1        0.0232
     32 H          -3.2820   -4.0220    1.0661 H       1  UNL1        0.0232
     33 H          -4.9559   -3.7385    0.5471 H       1  UNL1        0.0232
     34 H          -3.0856   -0.9645    1.4496 H       1  UNL1        0.0321
     35 H          -5.5615   -1.2681    0.8170 H       1  UNL1        0.0269
     36 H          -5.0314    0.2600    1.5589 H       1  UNL1        0.0269
     37 H          -5.8735   -0.1811   -1.3494 H       1  UNL1        0.0268
     38 H          -6.4776    0.8920   -0.0736 H       1  UNL1        0.0268
     39 H          -5.0836    2.0202   -1.7671 H       1  UNL1        0.0299
     40 H          -5.7228    2.9234    0.2895 H       1  UNL1        0.0232
     41 H          -4.2476    2.2610    1.1730 H       1  UNL1        0.0232
     42 H          -4.1090    3.4824   -0.2016 H       1  UNL1        0.0232
     43 H          -2.5983    2.0175   -1.2176 H       1  UNL1        0.0286
     44 H          -3.2635    0.7852   -2.3000 H       1  UNL1        0.0286
     45 H          -1.9984   -0.5785   -0.9996 H       1  UNL1        0.0501
     46 H          -2.0096    1.4022    1.2875 H       1  UNL1        0.1505
     47 H           0.3913    1.7484    2.0544 H       1  UNL1        0.1502
     48 H           2.6952    1.2208    1.9939 H       1  UNL1        0.0466
     49 H           2.2025   -0.3380    1.3146 H       1  UNL1        0.0466
     50 H           2.2247    0.5140   -0.9698 H       1  UNL1        0.0343
     51 H           2.5547    2.2142   -0.3418 H       1  UNL1        0.0343
     52 H           4.1677   -1.3201   -0.7856 H       1  UNL1        0.0641
     53 H           6.8985   -2.1618   -0.7579 H       1  UNL1        0.0661
     54 H           9.6034   -2.0432   -1.2180 H       1  UNL1        0.2921
     55 H           9.6258    0.8583    0.5463 H       1  UNL1        0.0655
     56 H           7.7920    2.3939    0.8485 H       1  UNL1        0.0639
     57 H           4.9581    2.5774    0.5916 H       1  UNL1        0.1656
@<TRIPOS>BOND
     1     1     2    1
     2     2     3    1
     3     2     4    1
     4     4     5    1
     5     5     6    1
     6     6     7    1
     7     7     8    1
     8     7     9    1
     9     9    10    1
    10    10    11    1
    11    11    12   am
    12    12    13    2
    13    12    14   am
    14    14    15    1
    15    15    16    1
    16    16    17    1
    17    17    18   ar
    18    18    19   ar
    19    19    20   ar
    20    20    21   ar
    21    21    22    1
    22    21    23   ar
    23    23    24   ar
    24    24    25   ar
    25    25    26   ar
    26    10     4    1
    27    26    17   ar
    28    25    19   ar
    29     1    27    1
    30     1    28    1
    31     1    29    1
    32     2    30    1
    33     3    31    1
    34     3    32    1
    35     3    33    1
    36     4    34    1
    37     5    35    1
    38     5    36    1
    39     6    37    1
    40     6    38    1
    41     7    39    1
    42     8    40    1
    43     8    41    1
    44     8    42    1
    45     9    43    1
    46     9    44    1
    47    10    45    1
    48    11    46    1
    49    14    47    1
    50    15    48    1
    51    15    49    1
    52    16    50    1
    53    16    51    1
    54    18    52    1
    55    20    53    1
    56    22    54    1
    57    23    55    1
    58    24    56    1
    59    26    57    1
@<TRIPOS>MOLECULE
77158
 24 25 0 0 0
SMALL
GASTEIGER

@<TRIPOS>ATOM
      1 N          -3.2727   -0.2254    0.7675 N.3     1  UNL1       -0.3297
      2 C          -2.8525    0.8090   -0.1544 C.3     1  UNL1       -0.0029
      3 C          -1.4053    1.2079    0.0473 C.3     1  UNL1       -0.0133
      4 C          -0.4947    0.0514   -0.1527 C.ar    1  UNL1       -0.0211
      5 C          -0.8767   -1.2408   -0.4815 C.ar    1  UNL1        0.0059
      6 N           0.2640   -1.9437   -0.5589 N.ar    1  UNL1       -0.3604
      7 C           1.3292   -1.1561   -0.2959 C.ar    1  UNL1        0.0468
      8 C           2.6958   -1.3667   -0.2419 C.ar    1  UNL1       -0.0367
      9 C           3.5982   -0.3679    0.0580 C.ar    1  UNL1       -0.0458
     10 C           3.1102    0.8962    0.3148 C.ar    1  UNL1        0.0186
     11 BR          4.3415    2.3145    0.7368 Br      1  UNL1       -0.0503
     12 C           1.7581    1.1627    0.2749 C.ar    1  UNL1       -0.0383
     13 C           0.8794    0.1267   -0.0318 C.ar    1  UNL1        0.0039
     14 H          -3.6922    0.2059    1.6395 H       1  UNL1        0.1182
     15 H          -3.9785   -0.8751    0.3365 H       1  UNL1        0.1182
     16 H          -3.5231    1.6893   -0.1102 H       1  UNL1        0.0425
     17 H          -2.9228    0.4411   -1.2150 H       1  UNL1        0.0425
     18 H          -1.1915    2.0211   -0.6702 H       1  UNL1        0.0326
     19 H          -1.2574    1.6011    1.0541 H       1  UNL1        0.0326
     20 H          -1.9034   -1.5968   -0.6415 H       1  UNL1        0.0810
     21 H           0.3341   -2.9493   -0.7872 H       1  UNL1        0.1653
     22 H           3.0398   -2.3832   -0.4521 H       1  UNL1        0.0639
     23 H           4.6666   -0.5675    0.0920 H       1  UNL1        0.0629
     24 H           1.3537    2.1455    0.4727 H       1  UNL1        0.0635
@<TRIPOS>BOND
     1     1     2    1
     2     2     3    1
     3     3     4    1
     4     4     5   ar
     5     5     6   ar
     6     6     7   ar
     7     7     8   ar
     8     8     9   ar
     9     9    10   ar
    10    10    11    1
    11    10    12   ar
    12    12    13   ar
    13    13     4   ar
    14    13     7   ar
    15     1    14    1
    16     1    15    1
    17     2    16    1
    18     2    17    1
    19     3    18    1
    20     3    19    1
    21     5    20    1
    22     6    21    1
    23     8    22    1
    24     9    23    1
    25    12    24    1
@<TRIPOS>MOLECULE
51324142
 48 51 0 0 0
SMALL
GASTEIGER

@<TRIPOS>ATOM
      1 C          -5.8391    0.0985   -2.3463 C.3     1  UNL1        0.0790
      2 O          -4.5044   -0.2413   -2.2865 O.3     1  UNL1       -0.4914
      3 C          -3.6601    0.1475   -1.2520 C.ar    1  UNL1        0.1618
      4 C          -4.0448    0.9048   -0.1861 C.ar    1  UNL1       -0.0124
      5 C          -3.1319    1.2499    0.8106 C.ar    1  UNL1       -0.0327
      6 C          -1.8301    0.8397    0.7470 C.ar    1  UNL1        0.0089
      7 C          -1.4144    0.0739   -0.3187 C.ar    1  UNL1       -0.0068
      8 C          -2.3166   -0.2716   -1.3113 C.ar    1  UNL1        0.1621
      9 O          -1.9610   -1.0257   -2.3835 O.3     1  UNL1       -0.4914
     10 C          -0.7660   -1.5981   -2.7491 C.3     1  UNL1        0.0790
     11 C          -0.9433    1.1970    1.8374 C.2     1  UNL1        0.0912
     12 C           0.4676    0.8227    1.8903 C.ar    1  UNL1        0.0900
     13 C           1.1574    1.1771    3.0636 C.ar    1  UNL1       -0.0341
     14 C           2.4858    0.9301    3.2600 C.ar    1  UNL1       -0.0577
     15 C           3.1655    0.2883    2.2164 C.ar    1  UNL1       -0.0357
     16 C           2.5104   -0.0676    1.0581 C.ar    1  UNL1        0.0719
     17 C           3.2442   -0.7069   -0.0235 C.ar    1  UNL1        0.0068
     18 C           2.6155   -1.0327   -1.2043 C.ar    1  UNL1       -0.0521
     19 C           3.2792   -1.6528   -2.2692 C.ar    1  UNL1       -0.0547
     20 C           4.6133   -1.9597   -2.1578 C.ar    1  UNL1        0.0156
     21 C           5.2567   -1.6430   -0.9902 C.ar    1  UNL1        0.2738
     22 N           6.6310   -1.9566   -0.8666 N.pl3   1  UNL1        0.0796
     23 O           7.2105   -1.6710    0.1985 O.2     1  UNL1        0.0414
     24 O           7.3069   -2.5568   -1.8854 O.co2   1  UNL1       -0.5760
     25 C           4.5761   -1.0256    0.0577 C.ar    1  UNL1        0.0247
     26 N           1.1953    0.2238    0.9687 N.ar    1  UNL1       -0.2452
     27 N          -1.4381    1.8834    2.8199 N.2     1  UNL1       -0.2808
     28 C          -2.7456    2.3558    3.0082 C.3     1  UNL1        0.0444
     29 C          -3.6636    2.0792    1.8908 C.3     1  UNL1       -0.0073
     30 H          -6.0139    0.9341   -3.0878 H       1  UNL1        0.0660
     31 H          -6.3200    0.4131   -1.4235 H       1  UNL1        0.0660
     32 H          -6.3753   -0.7964   -2.7880 H       1  UNL1        0.0660
     33 H          -5.0769    1.2408   -0.1209 H       1  UNL1        0.0658
     34 H          -0.3925   -0.2493   -0.3545 H       1  UNL1        0.0662
     35 H          -0.9530   -2.3748   -3.5480 H       1  UNL1        0.0660
     36 H           0.0131   -0.9458   -3.1428 H       1  UNL1        0.0660
     37 H          -0.2792   -2.1960   -1.9248 H       1  UNL1        0.0660
     38 H           0.6086    1.6803    3.8756 H       1  UNL1        0.0639
     39 H           3.0019    1.2094    4.1691 H       1  UNL1        0.0619
     40 H           4.2174    0.0926    2.3713 H       1  UNL1        0.0639
     41 H           1.5759   -0.8010   -1.3285 H       1  UNL1        0.0624
     42 H           2.7365   -1.8841   -3.1671 H       1  UNL1        0.0620
     43 H           5.1607   -2.4479   -2.9791 H       1  UNL1        0.0685
     44 H           5.1149   -0.7932    0.9590 H       1  UNL1        0.0692
     45 H          -3.1409    1.9086    3.9735 H       1  UNL1        0.0511
     46 H          -2.7130    3.4849    3.1487 H       1  UNL1        0.0511
     47 H          -4.0224    3.0576    1.4510 H       1  UNL1        0.0331
     48 H          -4.5985    1.6048    2.3182 H       1  UNL1        0.0331
@<TRIPOS>UNITY_ATOM_ATTR
22 1
charge 1
24 1
charge -1
@<TRIPOS>BOND
     1     1     2    1
     2     2     3    1
     3     3     4   ar
     4     4     5   ar
     5     5     6   ar
     6     6     7   ar
     7     7     8   ar
     8     8     9    1
     9     9    10    1
    10     6    11    1
    11    11    12    1
    12    12    13   ar
    13    13    14   ar
    14    14    15   ar
    15    15    16   ar
    16    16    17    1
    17    17    18   ar
    18    18    19   ar
    19    19    20   ar
    20    20    21   ar
    21    21    22    1
    22    22    23    2
    23    22    24    1
    24    21    25   ar
    25    16    26   ar
    26    11    27    2
    27    27    28    1
    28    28    29    1
    29     8     3   ar
    30    26    12   ar
    31    29     5    1
    32    25    17   ar
    33     1    30    1
    34     1    31    1
    35     1    32    1
    36     4    33    1
    37     7    34    1
    38    10    35    1
    39    10    36    1
    40    10    37    1
    41    13    38    1
    42    14    39    1
    43    15    40    1
    44    18    41    1
    45    19    42    1
    46    20    43    1
    47    25    44    1
    48    28    45    1
    49    28    46    1
    50    29    47    1
    51    29    48    1
@<TRIPOS>MOLECULE
51345616
 58 62 0 0 0
SMALL
GASTEIGER

@<TRIPOS>ATOM
      1 C           7.6752   -1.6467    1.5074 C.3     1  UNL1        0.0788
      2 O           6.7850   -2.1614    0.5452 O.3     1  UNL1       -0.4951
      3 C           5.7672   -1.4189   -0.0334 C.ar    1  UNL1        0.1201
      4 C           4.9746   -2.0602   -0.9619 C.ar    1  UNL1       -0.0196
      5 C           3.9260   -1.3776   -1.5902 C.ar    1  UNL1       -0.0536
      6 C           3.6589   -0.0594   -1.3018 C.ar    1  UNL1       -0.0293
      7 C           2.5633    0.6468   -1.9610 C.3     1  UNL1        0.0489
      8 N           1.2988    0.5495   -1.2564 N.am    1  UNL1       -0.2199
      9 C           0.8241    1.4437   -0.2573 C.2     1  UNL1        0.2442
     10 O           1.2090    2.6270   -0.0274 O.2     1  UNL1       -0.2731
     11 C          -0.2341    0.7079    0.4828 C.3     1  UNL1        0.1090
     12 C          -1.2494    1.6262    1.0925 C.3     1  UNL1        0.0020
     13 C          -2.5076    1.7132    0.3132 C.ar    1  UNL1       -0.0151
     14 C          -2.9792    0.6746   -0.4611 C.ar    1  UNL1        0.0411
     15 N          -4.1316    1.0489   -1.0422 N.ar    1  UNL1       -0.3562
     16 C          -4.4185    2.3156   -0.6585 C.ar    1  UNL1        0.0470
     17 C          -5.4588    3.1857   -0.9433 C.ar    1  UNL1       -0.0378
     18 C          -5.5056    4.4519   -0.4037 C.ar    1  UNL1       -0.0598
     19 C          -4.5020    4.8843    0.4437 C.ar    1  UNL1       -0.0611
     20 C          -3.4762    4.0022    0.7138 C.ar    1  UNL1       -0.0523
     21 C          -3.4232    2.7324    0.1765 C.ar    1  UNL1        0.0032
     22 C          -2.1888   -0.5665   -0.5059 C.3     1  UNL1        0.0689
     23 C          -2.4492   -1.3705    0.7254 C.3     1  UNL1       -0.0263
     24 C          -1.6750   -2.6703    0.7650 C.3     1  UNL1       -0.0447
     25 C          -2.0282   -3.5564   -0.4098 C.3     1  UNL1       -0.0626
     26 C          -2.0768   -3.3783    2.0478 C.3     1  UNL1       -0.0626
     27 N          -0.7766   -0.1557   -0.5309 N.am    1  UNL1       -0.2648
     28 C           0.2952   -0.4443   -1.4209 C.2     1  UNL1        0.3126
     29 O           0.3405   -1.4330   -2.2293 O.2     1  UNL1       -0.2519
     30 C           4.4618    0.5602   -0.3730 C.ar    1  UNL1       -0.0536
     31 C           5.5090   -0.1171    0.2562 C.ar    1  UNL1       -0.0196
     32 H           8.1323   -0.6778    1.1792 H       1  UNL1        0.0660
     33 H           7.2302   -1.5214    2.5029 H       1  UNL1        0.0660
     34 H           8.5252   -2.3517    1.6132 H       1  UNL1        0.0660
     35 H           5.1492   -3.0989   -1.2197 H       1  UNL1        0.0654
     36 H           3.3197   -1.9081   -2.3161 H       1  UNL1        0.0622
     37 H           2.7562    1.7542   -2.0723 H       1  UNL1        0.0519
     38 H           2.4186    0.2994   -3.0260 H       1  UNL1        0.0519
     39 H           0.2709    0.1525    1.3041 H       1  UNL1        0.0601
     40 H          -1.4624    1.3791    2.1737 H       1  UNL1        0.0337
     41 H          -0.7819    2.6473    1.1400 H       1  UNL1        0.0337
     42 H          -4.7508    0.4935   -1.6949 H       1  UNL1        0.1657
     43 H          -6.2222    2.8268   -1.6015 H       1  UNL1        0.0638
     44 H          -6.3486    5.0830   -0.6679 H       1  UNL1        0.0618
     45 H          -4.5185    5.8685    0.8760 H       1  UNL1        0.0618
     46 H          -2.6795    4.3404    1.3842 H       1  UNL1        0.0624
     47 H          -2.4220   -1.1693   -1.3810 H       1  UNL1        0.0566
     48 H          -3.5380   -1.6724    0.6895 H       1  UNL1        0.0289
     49 H          -2.3453   -0.8071    1.6734 H       1  UNL1        0.0289
     50 H          -0.5931   -2.5390    0.7796 H       1  UNL1        0.0296
     51 H          -1.6806   -3.0687   -1.3375 H       1  UNL1        0.0232
     52 H          -1.4905   -4.5176   -0.2753 H       1  UNL1        0.0232
     53 H          -3.1210   -3.7532   -0.4376 H       1  UNL1        0.0232
     54 H          -1.4806   -2.9003    2.8604 H       1  UNL1        0.0232
     55 H          -1.8632   -4.4486    2.0351 H       1  UNL1        0.0232
     56 H          -3.1381   -3.1273    2.2486 H       1  UNL1        0.0232
     57 H           4.2900    1.5854   -0.1181 H       1  UNL1        0.0622
     58 H           6.1365    0.3774    0.9861 H       1  UNL1        0.0654
@<TRIPOS>BOND
     1     1     2    1
     2     2     3    1
     3     3     4   ar
     4     4     5   ar
     5     5     6   ar
     6     6     7    1
     7     7     8    1
     8     8     9   am
     9     9    10    2
    10     9    11    1
    11    11    12    1
    12    12    13    1
    13    13    14   ar
    14    14    15   ar
    15    15    16   ar
    16    16    17   ar
    17    17    18   ar
    18    18    19   ar
    19    19    20   ar
    20    20    21   ar
    21    14    22    1
    22    22    23    1
    23    23    24    1
    24    24    25    1
    25    24    26    1
    26    22    27    1
    27    27    28   am
    28    28    29    2
    29     6    30   ar
    30    30    31   ar
    31    31     3   ar
    32    28     8   am
    33    27    11    1
    34    21    13   ar
    35    21    16   ar
    36     1    32    1
    37     1    33    1
    38     1    34    1
    39     4    35    1
    40     5    36    1
    41     7    37    1
    42     7    38    1
    43    11    39    1
    44    12    40    1
    45    12    41    1
    46    15    42    1
    47    17    43    1
    48    18    44    1
    49    19    45    1
    50    20    46    1
    51    22    47    1
    52    23    48    1
    53    23    49    1
    54    24    50    1
    55    25    51    1
    56    25    52    1
    57    25    53    1
    58    26    54    1
    59    26    55    1
    60    26    56    1
    61    30    57    1
    62    31    58    1
@<TRIPOS>MOLECULE
118719633
 43 45 0 0 0
SMALL
GASTEIGER

@<TRIPOS>ATOM
      1 N          -4.4058    6.4308   -0.0218 N.1     1  UNL1       -0.1908
      2 C          -3.8235    5.4668    0.0276 C.1     1  UNL1        0.1007
      3 C          -3.0715    4.2131    0.0671 C.ar    1  UNL1        0.0713
      4 C          -3.4265    3.2226    0.9283 C.ar    1  UNL1        0.0472
      5 N          -2.7518    2.0402    0.9819 N.ar    1  UNL1       -0.2360
      6 C          -1.6877    1.8301    0.1542 C.ar    1  UNL1        0.1592
      7 N          -0.9380    0.6146    0.1632 N.pl3   1  UNL1       -0.1801
      8 C          -1.4057   -0.4530   -0.6952 C.3     1  UNL1        0.0615
      9 C          -1.8026   -1.6606    0.0048 C.ar    1  UNL1       -0.0283
     10 C          -2.9425   -1.7961    0.7122 C.ar    1  UNL1       -0.0570
     11 C          -3.3451   -2.9395    1.3589 C.ar    1  UNL1       -0.0615
     12 C          -2.5099   -4.0882    1.2940 C.ar    1  UNL1       -0.0617
     13 C          -1.3679   -3.9372    0.5771 C.ar    1  UNL1       -0.0615
     14 C          -0.9780   -2.7965   -0.0603 C.ar    1  UNL1       -0.0570
     15 S           0.4282    0.4609    1.1466 S.O2    1  UNL1        0.0762
     16 O           0.6490    1.6940    2.0095 O.2     1  UNL1       -0.1497
     17 O           0.1843   -0.6817    2.1336 O.2     1  UNL1       -0.1497
     18 C           1.9319    0.1538    0.3544 C.ar    1  UNL1        0.1088
     19 C           2.3741   -1.1747    0.2548 C.ar    1  UNL1       -0.0343
     20 C           3.5495   -1.5385   -0.3345 C.ar    1  UNL1       -0.0459
     21 C           4.3680   -0.5309   -0.8733 C.ar    1  UNL1        0.0589
     22 C           5.6028   -0.9214   -1.4974 C.2     1  UNL1        0.3368
     23 O           6.4105   -0.0909   -2.0001 O.2     1  UNL1       -0.2451
     24 O           5.9960   -2.2494   -1.5931 O.3     1  UNL1       -0.4771
     25 C           3.9770    0.7782   -0.7991 C.ar    1  UNL1       -0.0459
     26 C           2.7559    1.0923   -0.1817 C.ar    1  UNL1       -0.0343
     27 C          -1.2845    2.8033   -0.7379 C.ar    1  UNL1        0.0835
     28 CL          0.0779    2.5894   -1.8298 Cl      1  UNL1       -0.0799
     29 C          -2.0090    4.0043   -0.7586 C.ar    1  UNL1       -0.0211
     30 H          -4.2861    3.4038    1.5941 H       1  UNL1        0.0843
     31 H          -0.5614   -0.7236   -1.4054 H       1  UNL1        0.0532
     32 H          -2.2085   -0.0611   -1.3734 H       1  UNL1        0.0532
     33 H          -3.6550   -0.9486    0.8201 H       1  UNL1        0.0621
     34 H          -4.2584   -3.0285    1.9234 H       1  UNL1        0.0618
     35 H          -2.8145   -4.9690    1.7969 H       1  UNL1        0.0618
     36 H          -0.7111   -4.8464    0.5186 H       1  UNL1        0.0618
     37 H          -0.0732   -2.7411   -0.6180 H       1  UNL1        0.0621
     38 H           1.7596   -1.9681    0.6687 H       1  UNL1        0.0637
     39 H           3.8840   -2.5629   -0.4084 H       1  UNL1        0.0626
     40 H           6.9750   -2.5355   -1.4956 H       1  UNL1        0.2954
     41 H           4.6148    1.5354   -1.2095 H       1  UNL1        0.0626
     42 H           2.4662    2.1555   -0.1358 H       1  UNL1        0.0637
     43 H          -1.6864    4.7542   -1.4605 H       1  UNL1        0.0646
@<TRIPOS>BOND
     1     1     2    3
     2     2     3    1
     3     3     4   ar
     4     4     5   ar
     5     5     6   ar
     6     6     7    1
     7     7     8    1
     8     8     9    1
     9     9    10   ar
    10    10    11   ar
    11    11    12   ar
    12    12    13   ar
    13    13    14   ar
    14     7    15    1
    15    15    16    2
    16    15    17    2
    17    15    18    1
    18    18    19   ar
    19    19    20   ar
    20    20    21   ar
    21    21    22    1
    22    22    23    2
    23    22    24    1
    24    21    25   ar
    25    25    26   ar
    26     6    27   ar
    27    27    28    1
    28    27    29   ar
    29    29     3   ar
    30    14     9   ar
    31    26    18   ar
    32     4    30    1
    33     8    31    1
    34     8    32    1
    35    10    33    1
    36    11    34    1
    37    12    35    1
    38    13    36    1
    39    14    37    1
    40    19    38    1
    41    20    39    1
    42    24    40    1
    43    25    41    1
    44    26    42    1
    45    29    43    1
@<TRIPOS>MOLECULE
50575084
 54 55 0 0 0
SMALL
GASTEIGER

@<TRIPOS>ATOM
      1 C           7.2594   -2.2793    0.8358 C.3     1  UNL1        0.0790
      2 O           6.7784   -1.1218    0.5046 O.3     1  UNL1       -0.4914
      3 C           5.9201   -0.1423    0.4073 C.ar    1  UNL1        0.1616
      4 C           4.6112   -0.1760    0.9115 C.ar    1  UNL1       -0.0116
      5 C           3.7560    0.8606    0.7908 C.ar    1  UNL1       -0.0266
      6 C           2.3640    0.8291    1.3182 C.3     1  UNL1        0.0384
      7 N           1.4265    0.3018    0.3358 N.am    1  UNL1       -0.2953
      8 C           0.0433    0.2222    0.6367 C.2     1  UNL1        0.3001
      9 O          -0.3685    0.6041    1.7597 O.2     1  UNL1       -0.2528
     10 N          -0.9332   -0.2761   -0.2742 N.am    1  UNL1       -0.2963
     11 C          -2.3492   -0.3475    0.0370 C.3     1  UNL1        0.0279
     12 C          -2.7280   -1.7872    0.1234 C.3     1  UNL1       -0.0316
     13 C          -4.2053   -2.0303   -0.0782 C.3     1  UNL1       -0.0422
     14 C          -4.4823   -3.5165   -0.0631 C.3     1  UNL1       -0.0624
     15 C          -4.5360   -1.5050   -1.4582 C.3     1  UNL1       -0.0501
     16 C          -4.4753    0.0190   -1.2997 C.3     1  UNL1       -0.0481
     17 C          -3.1201    0.4824   -0.9018 C.3     1  UNL1       -0.0202
     18 C          -3.2479    1.9487   -0.4930 C.3     1  UNL1       -0.0422
     19 C          -3.9133    2.1290    0.8438 C.3     1  UNL1       -0.0624
     20 C          -1.9553    2.6742   -0.5012 C.3     1  UNL1       -0.0624
     21 C           4.1984    1.9954    0.1434 C.ar    1  UNL1       -0.0534
     22 C           5.4614    2.0959   -0.3725 C.ar    1  UNL1       -0.0162
     23 C           6.3199    1.0503   -0.2498 C.ar    1  UNL1        0.1585
     24 O           7.6340    1.1050   -0.7666 O.3     1  UNL1       -0.5033
     25 H           7.9058   -2.3276    1.7842 H       1  UNL1        0.0660
     26 H           7.9692   -2.7840    0.0873 H       1  UNL1        0.0660
     27 H           6.4671   -3.0592    1.0474 H       1  UNL1        0.0660
     28 H           4.3278   -1.0998    1.4150 H       1  UNL1        0.0658
     29 H           2.0412    1.9052    1.4627 H       1  UNL1        0.0512
     30 H           2.2488    0.3191    2.2729 H       1  UNL1        0.0512
     31 H           1.7670   -0.0223   -0.5937 H       1  UNL1        0.1506
     32 H          -0.6001   -0.6013   -1.2069 H       1  UNL1        0.1505
     33 H          -2.4485    0.0544    1.0855 H       1  UNL1        0.0501
     34 H          -2.1837   -2.4101   -0.6133 H       1  UNL1        0.0286
     35 H          -2.4705   -2.1978    1.1283 H       1  UNL1        0.0286
     36 H          -4.7983   -1.4778    0.6525 H       1  UNL1        0.0299
     37 H          -4.7739   -3.7584    0.9799 H       1  UNL1        0.0232
     38 H          -3.6313   -4.1119   -0.4361 H       1  UNL1        0.0232
     39 H          -5.3695   -3.7206   -0.7003 H       1  UNL1        0.0232
     40 H          -5.5371   -1.8084   -1.8086 H       1  UNL1        0.0268
     41 H          -3.7063   -1.8391   -2.1559 H       1  UNL1        0.0268
     42 H          -5.2838    0.2678   -0.5675 H       1  UNL1        0.0269
     43 H          -4.7217    0.4414   -2.3183 H       1  UNL1        0.0269
     44 H          -2.5314    0.5412   -1.8707 H       1  UNL1        0.0321
     45 H          -3.9347    2.4606   -1.2388 H       1  UNL1        0.0299
     46 H          -4.4809    3.1100    0.8015 H       1  UNL1        0.0232
     47 H          -4.6869    1.3693    1.0383 H       1  UNL1        0.0232
     48 H          -3.1811    2.2645    1.6681 H       1  UNL1        0.0232
     49 H          -2.1167    3.6838   -0.9561 H       1  UNL1        0.0232
     50 H          -1.5758    2.9110    0.5384 H       1  UNL1        0.0232
     51 H          -1.1719    2.2059   -1.1351 H       1  UNL1        0.0232
     52 H           3.5318    2.8573    0.0273 H       1  UNL1        0.0622
     53 H           5.7823    3.0152   -0.8815 H       1  UNL1        0.0655
     54 H           7.7050    0.6761   -1.6959 H       1  UNL1        0.2923
@<TRIPOS>BOND
     1     1     2    1
     2     2     3    1
     3     3     4   ar
     4     4     5   ar
     5     5     6    1
     6     6     7    1
     7     7     8   am
     8     8     9    2
     9     8    10   am
    10    10    11    1
    11    11    12    1
    12    12    13    1
    13    13    14    1
    14    13    15    1
    15    15    16    1
    16    16    17    1
    17    17    18    1
    18    18    19    1
    19    18    20    1
    20     5    21   ar
    21    21    22   ar
    22    22    23   ar
    23    23    24    1
    24    23     3   ar
    25    17    11    1
    26     1    25    1
    27     1    26    1
    28     1    27    1
    29     4    28    1
    30     6    29    1
    31     6    30    1
    32     7    31    1
    33    10    32    1
    34    11    33    1
    35    12    34    1
    36    12    35    1
    37    13    36    1
    38    14    37    1
    39    14    38    1
    40    14    39    1
    41    15    40    1
    42    15    41    1
    43    16    42    1
    44    16    43    1
    45    17    44    1
    46    18    45    1
    47    19    46    1
    48    19    47    1
    49    19    48    1
    50    20    49    1
    51    20    50    1
    52    20    51    1
    53    21    52    1
    54    22    53    1
    55    24    54    1
@<TRIPOS>MOLECULE
53464483
 84 90 0 0 0
SMALL
GASTEIGER

@<TRIPOS>ATOM
      1 O          -2.2535   -0.5009   -2.4644 O.2     1  UNL1       -0.2701
      2 C          -2.5004   -0.4272   -1.2297 C.2     1  UNL1        0.2457
      3 N          -2.8205   -1.6369   -0.5500 N.am    1  UNL1       -0.3018
      4 C          -2.8907   -2.9338   -1.1844 C.3     1  UNL1        0.0601
      5 C          -3.5685   -3.9723   -0.3299 C.ar    1  UNL1       -0.0241
      6 C          -4.8005   -3.6251    0.2001 C.ar    1  UNL1       -0.0565
      7 C          -5.5286   -4.4875    1.0096 C.ar    1  UNL1       -0.0614
      8 C          -4.9950   -5.7252    1.2850 C.ar    1  UNL1       -0.0617
      9 C          -3.7666   -6.0718    0.7565 C.ar    1  UNL1       -0.0614
     10 C          -3.0424   -5.1964   -0.0566 C.ar    1  UNL1       -0.0565
     11 C          -1.6060   -3.3078   -1.8580 C.3     1  UNL1       -0.0252
     12 C          -2.9110   -3.1713   -2.6178 C.3     1  UNL1       -0.0252
     13 C          -2.4466    0.8584   -0.5276 C.ar    1  UNL1        0.0523
     14 C          -1.3081    1.6614   -0.6168 C.ar    1  UNL1        0.0053
     15 C          -0.1768    1.1936   -1.4142 C.3     1  UNL1        0.0268
     16 N           0.6142    0.1685   -0.9270 N.3     1  UNL1       -0.2980
     17 C           1.7091   -0.1693   -1.7663 C.3     1  UNL1        0.0006
     18 C           3.0000    0.1476   -1.0873 C.3     1  UNL1       -0.0245
     19 C           3.0076   -0.3406    0.3414 C.3     1  UNL1        0.0127
     20 N           4.2768   -0.8209    0.6558 N.3     1  UNL1       -0.2993
     21 C           5.3720    0.0487    0.5710 C.3     1  UNL1       -0.0008
     22 C           6.7237   -0.5829    0.6627 C.3     1  UNL1       -0.0402
     23 C           6.8195   -1.7137    1.6268 C.3     1  UNL1       -0.0507
     24 C           5.5032   -2.2457    2.1046 C.3     1  UNL1       -0.0402
     25 C           4.5390   -2.1612    0.9135 C.3     1  UNL1       -0.0008
     26 C           1.8412   -1.2086    0.5829 C.3     1  UNL1       -0.0245
     27 C           0.5772   -0.3407    0.3571 C.3     1  UNL1        0.0006
     28 C          -1.2633    2.8703    0.0173 C.ar    1  UNL1        0.0768
     29 C          -0.1229    3.8075   -0.0446 C.ar    1  UNL1        0.0012
     30 C           1.1542    3.4186    0.2214 C.ar    1  UNL1       -0.0525
     31 C           2.2106    4.3402    0.1393 C.ar    1  UNL1       -0.0606
     32 C           1.9341    5.6364   -0.2124 C.ar    1  UNL1       -0.0501
     33 C           0.6533    6.0592   -0.4868 C.ar    1  UNL1        0.0554
     34 C           0.3881    7.4851   -0.8692 C.3     1  UNL1        0.4174
     35 F           1.2621    7.9125   -1.8482 F       1  UNL1       -0.1659
     36 F           0.4450    8.2741    0.2557 F       1  UNL1       -0.1659
     37 F          -0.8793    7.5451   -1.4007 F       1  UNL1       -0.1659
     38 C          -0.3439    5.1277   -0.3945 C.ar    1  UNL1       -0.0409
     39 N          -2.3616    3.2521    0.7294 N.ar    1  UNL1       -0.2463
     40 C          -3.4741    2.5228    0.8446 C.ar    1  UNL1        0.0735
     41 C          -4.5591    2.9872    1.5677 C.ar    1  UNL1       -0.0217
     42 C          -5.7063    2.2581    1.6694 C.ar    1  UNL1        0.0199
     43 BR         -7.2206    2.8816    2.6665 Br      1  UNL1       -0.0502
     44 C          -5.7621    1.0419    1.0318 C.ar    1  UNL1       -0.0471
     45 C          -4.7113    0.5340    0.3005 C.ar    1  UNL1       -0.0508
     46 C          -3.5571    1.2739    0.2052 C.ar    1  UNL1        0.0129
     47 H          -2.9867   -1.5739    0.4745 H       1  UNL1        0.1499
     48 H          -5.2761   -2.6740    0.0196 H       1  UNL1        0.0621
     49 H          -6.4875   -4.2345    1.4300 H       1  UNL1        0.0618
     50 H          -5.5589   -6.4120    1.9207 H       1  UNL1        0.0618
     51 H          -3.3326   -7.0406    0.9631 H       1  UNL1        0.0618
     52 H          -2.0932   -5.4645   -0.4638 H       1  UNL1        0.0621
     53 H          -0.8507   -2.5154   -2.0424 H       1  UNL1        0.0290
     54 H          -1.1425   -4.2986   -1.7496 H       1  UNL1        0.0290
     55 H          -3.2974   -4.1808   -2.9618 H       1  UNL1        0.0290
     56 H          -3.0348   -2.4369   -3.4154 H       1  UNL1        0.0290
     57 H           0.5134    2.0706   -1.6685 H       1  UNL1        0.0477
     58 H          -0.5076    0.9047   -2.4682 H       1  UNL1        0.0477
     59 H           1.6800   -1.2313   -2.0954 H       1  UNL1        0.0427
     60 H           1.6958    0.4624   -2.7071 H       1  UNL1        0.0427
     61 H           3.8738   -0.3092   -1.6335 H       1  UNL1        0.0293
     62 H           3.1940    1.2400   -1.1397 H       1  UNL1        0.0293
     63 H           2.8446    0.5887    0.9741 H       1  UNL1        0.0463
     64 H           5.3354    0.5938   -0.4152 H       1  UNL1        0.0427
     65 H           5.2812    0.8605    1.3366 H       1  UNL1        0.0427
     66 H           7.4465    0.2037    0.9889 H       1  UNL1        0.0278
     67 H           7.0527   -0.8694   -0.3768 H       1  UNL1        0.0278
     68 H           7.4688   -1.4910    2.5006 H       1  UNL1        0.0266
     69 H           7.3435   -2.5607    1.0937 H       1  UNL1        0.0266
     70 H           5.6423   -3.3009    2.4249 H       1  UNL1        0.0278
     71 H           5.1413   -1.5950    2.9245 H       1  UNL1        0.0278
     72 H           3.6824   -2.8165    1.0363 H       1  UNL1        0.0427
     73 H           5.1365   -2.5896    0.0528 H       1  UNL1        0.0427
     74 H           1.7196   -2.0644   -0.0848 H       1  UNL1        0.0293
     75 H           1.7913   -1.5003    1.6504 H       1  UNL1        0.0293
     76 H           0.4626    0.3681    1.2063 H       1  UNL1        0.0427
     77 H          -0.2967   -1.0506    0.4944 H       1  UNL1        0.0427
     78 H           1.3962    2.4226    0.5031 H       1  UNL1        0.0624
     79 H           3.2288    4.0230    0.3529 H       1  UNL1        0.0618
     80 H           2.7550    6.3639   -0.2791 H       1  UNL1        0.0623
     81 H          -1.3538    5.4536   -0.6087 H       1  UNL1        0.0630
     82 H          -4.4769    3.9409    2.0502 H       1  UNL1        0.0650
     83 H          -6.6650    0.4468    1.0990 H       1  UNL1        0.0629
     84 H          -4.7797   -0.4001   -0.2161 H       1  UNL1        0.0625
@<TRIPOS>BOND
     1     1     2    2
     2     2     3   am
     3     3     4    1
     4     4     5    1
     5     5     6   ar
     6     6     7   ar
     7     7     8   ar
     8     8     9   ar
     9     9    10   ar
    10     4    11    1
    11    11    12    1
    12     2    13    1
    13    13    14   ar
    14    14    15    1
    15    15    16    1
    16    16    17    1
    17    17    18    1
    18    18    19    1
    19    19    20    1
    20    20    21    1
    21    21    22    1
    22    22    23    1
    23    23    24    1
    24    24    25    1
    25    19    26    1
    26    26    27    1
    27    14    28   ar
    28    28    29    1
    29    29    30   ar
    30    30    31   ar
    31    31    32   ar
    32    32    33   ar
    33    33    34    1
    34    34    35    1
    35    34    36    1
    36    34    37    1
    37    33    38   ar
    38    28    39   ar
    39    39    40   ar
    40    40    41   ar
    41    41    42   ar
    42    42    43    1
    43    42    44   ar
    44    44    45   ar
    45    45    46   ar
    46    12     4    1
    47    46    13   ar
    48    10     5   ar
    49    27    16    1
    50    38    29   ar
    51    46    40   ar
    52    25    20    1
    53     3    47    1
    54     6    48    1
    55     7    49    1
    56     8    50    1
    57     9    51    1
    58    10    52    1
    59    11    53    1
    60    11    54    1
    61    12    55    1
    62    12    56    1
    63    15    57    1
    64    15    58    1
    65    17    59    1
    66    17    60    1
    67    18    61    1
    68    18    62    1
    69    19    63    1
    70    21    64    1
    71    21    65    1
    72    22    66    1
    73    22    67    1
    74    23    68    1
    75    23    69    1
    76    24    70    1
    77    24    71    1
    78    25    72    1
    79    25    73    1
    80    26    74    1
    81    26    75    1
    82    27    76    1
    83    27    77    1
    84    30    78    1
    85    31    79    1
    86    32    80    1
    87    38    81    1
    88    41    82    1
    89    44    83    1
    90    45    84    1
@<TRIPOS>MOLECULE
50333162
 40 42 0 0 0
SMALL
GASTEIGER

@<TRIPOS>ATOM
      1 C           6.8732    1.5283    0.3076 C.3     1  UNL1        0.0736
      2 S           6.1932    0.0098   -0.2391 S.O2    1  UNL1        0.0403
      3 O           7.2307   -1.0688   -0.0146 O.2     1  UNL1       -0.1555
      4 O           5.9833    0.0482   -1.7429 O.2     1  UNL1       -0.1555
      5 N           4.7129   -0.4253    0.4636 N.pl3   1  UNL1       -0.2208
      6 C           3.5144    0.3240    0.3519 C.ar    1  UNL1        0.0496
      7 C           3.4992    1.6881    0.5275 C.ar    1  UNL1       -0.0392
      8 C           2.2827    2.3395    0.4017 C.ar    1  UNL1       -0.0580
      9 C           1.1233    1.6522    0.1110 C.ar    1  UNL1       -0.0376
     10 C           1.1232    0.2831   -0.0678 C.ar    1  UNL1        0.0527
     11 N          -0.0773   -0.4363   -0.3698 N.ar    1  UNL1       -0.2676
     12 C          -1.3178   -0.0699   -0.0112 C.ar    1  UNL1        0.0386
     13 C          -2.2454   -0.9839   -0.4609 C.ar    1  UNL1        0.0674
     14 C          -3.6940   -1.0001   -0.3105 C.ar    1  UNL1        0.0062
     15 C          -4.4547   -2.0190   -0.8422 C.ar    1  UNL1       -0.0522
     16 C          -5.8346   -2.0076   -0.6827 C.ar    1  UNL1       -0.0547
     17 C          -6.4515   -1.0035   -0.0076 C.ar    1  UNL1        0.0156
     18 C          -5.7233    0.0317    0.5374 C.ar    1  UNL1        0.2738
     19 N          -6.3435    1.0895    1.2453 N.pl3   1  UNL1        0.0796
     20 O          -7.5737    1.0932    1.3836 O.2     1  UNL1        0.0414
     21 O          -5.5990    2.1058    1.7771 O.co2   1  UNL1       -0.5760
     22 C          -4.3576    0.0015    0.3681 C.ar    1  UNL1        0.0247
     23 N          -1.5359   -1.9238   -1.1074 N.ar    1  UNL1       -0.3057
     24 C          -0.2132   -1.5876   -1.0505 C.ar    1  UNL1        0.3316
     25 O           0.7171   -2.2594   -1.5594 O.2     1  UNL1       -0.2462
     26 C           2.3358   -0.3588    0.0585 C.ar    1  UNL1       -0.0153
     27 H           6.5312    2.3648   -0.3341 H       1  UNL1        0.0482
     28 H           7.9956    1.5304    0.2249 H       1  UNL1        0.0482
     29 H           6.6730    1.7737    1.3631 H       1  UNL1        0.0482
     30 H           4.6690   -1.3237    1.0318 H       1  UNL1        0.1733
     31 H           4.4122    2.2248    0.7570 H       1  UNL1        0.0636
     32 H           2.2809    3.4291    0.5437 H       1  UNL1        0.0619
     33 H           0.1718    2.1586    0.0123 H       1  UNL1        0.0638
     34 H          -1.5784    0.8076    0.5480 H       1  UNL1        0.0835
     35 H          -4.0016   -2.8386   -1.3876 H       1  UNL1        0.0624
     36 H          -6.4586   -2.8017   -1.0936 H       1  UNL1        0.0620
     37 H          -7.5345   -0.9485    0.1454 H       1  UNL1        0.0685
     38 H          -3.7357    0.8004    0.7822 H       1  UNL1        0.0692
     39 H          -1.9400   -2.7794   -1.5798 H       1  UNL1        0.1705
     40 H           2.3475   -1.4483   -0.0817 H       1  UNL1        0.0657
@<TRIPOS>UNITY_ATOM_ATTR
19 1
charge 1
21 1
charge -1
@<TRIPOS>BOND
     1     1     2    1
     2     2     3    2
     3     2     4    2
     4     2     5    1
     5     5     6    1
     6     6     7   ar
     7     7     8   ar
     8     8     9   ar
     9     9    10   ar
    10    10    11    1
    11    11    12   ar
    12    12    13   ar
    13    13    14    1
    14    14    15   ar
    15    15    16   ar
    16    16    17   ar
    17    17    18   ar
    18    18    19    1
    19    19    20    2
    20    19    21    1
    21    18    22   ar
    22    13    23   ar
    23    23    24   ar
    24    24    25    2
    25    10    26   ar
    26    26     6   ar
    27    24    11   ar
    28    22    14   ar
    29     1    27    1
    30     1    28    1
    31     1    29    1
    32     5    30    1
    33     7    31    1
    34     8    32    1
    35     9    33    1
    36    12    34    1
    37    15    35    1
    38    16    36    1
    39    17    37    1
    40    22    38    1
    41    23    39    1
    42    26    40    1
@<TRIPOS>MOLECULE
CHEMBL4458679
 36 37 0 0 0
SMALL
GASTEIGER

@<TRIPOS>ATOM
      1 C           1.2030    1.2066   -0.1215 C.3     1  UNL1       -0.0348
      2 C           1.0013   -0.2288    0.0194 C.2     1  UNL1        0.0121
      3 C           1.9729   -1.0818    0.1122 C.2     1  UNL1       -0.0467
      4 C           3.3635   -0.6834    0.0879 C.ar    1  UNL1       -0.0246
      5 C           4.2089   -1.3760   -0.7607 C.ar    1  UNL1       -0.0546
      6 C           5.5339   -1.0801   -0.8303 C.ar    1  UNL1       -0.0612
      7 C           6.0712   -0.0781   -0.0540 C.ar    1  UNL1       -0.0617
      8 C           5.2177    0.6044    0.7882 C.ar    1  UNL1       -0.0612
      9 C           3.8769    0.3198    0.8728 C.ar    1  UNL1       -0.0546
     10 C          -0.3854   -0.7662    0.0633 C.2     1  UNL1        0.2440
     11 O          -0.5426   -1.9992    0.1789 O.2     1  UNL1       -0.2702
     12 N          -1.4891    0.1025   -0.0234 N.am    1  UNL1       -0.2810
     13 C          -2.8514   -0.2697    0.0014 C.ar    1  UNL1        0.0477
     14 C          -3.2612   -1.5703    0.0657 C.ar    1  UNL1       -0.0397
     15 C          -4.5858   -1.9711    0.0995 C.ar    1  UNL1       -0.0600
     16 C          -5.5463   -0.9923    0.0654 C.ar    1  UNL1       -0.0609
     17 C          -5.1773    0.3226    0.0009 C.ar    1  UNL1       -0.0460
     18 C          -3.8280    0.7274   -0.0331 C.ar    1  UNL1        0.0800
     19 C          -3.5593    2.1511   -0.1034 C.2     1  UNL1        0.3386
     20 O          -2.4686    2.7282   -0.1479 O.2     1  UNL1       -0.2451
     21 O          -4.6658    3.0365   -0.1260 O.3     1  UNL1       -0.4771
     22 H           0.9784    1.6941    0.8613 H       1  UNL1        0.0279
     23 H           2.2234    1.5282   -0.4143 H       1  UNL1        0.0279
     24 H           0.5294    1.6561   -0.8999 H       1  UNL1        0.0279
     25 H           1.8051   -2.1688    0.2143 H       1  UNL1        0.0628
     26 H           3.8267   -2.1876   -1.3994 H       1  UNL1        0.0623
     27 H           6.2333   -1.6122   -1.4951 H       1  UNL1        0.0618
     28 H           7.1365    0.1802   -0.0912 H       1  UNL1        0.0618
     29 H           5.6735    1.4040    1.4003 H       1  UNL1        0.0618
     30 H           3.2556    0.8814    1.5641 H       1  UNL1        0.0623
     31 H          -1.2202    1.1338   -0.1156 H       1  UNL1        0.1551
     32 H          -2.5601   -2.4216    0.0911 H       1  UNL1        0.0636
     33 H          -4.8792   -3.0090    0.1488 H       1  UNL1        0.0618
     34 H          -6.5970   -1.3038    0.0916 H       1  UNL1        0.0618
     35 H          -5.9454    1.0847   -0.0235 H       1  UNL1        0.0626
     36 H          -4.5486    4.0383   -0.0885 H       1  UNL1        0.2954
@<TRIPOS>BOND
     1     1     2    1
     2     2     3    2
     3     3     4    1
     4     4     5   ar
     5     5     6   ar
     6     6     7   ar
     7     7     8   ar
     8     8     9   ar
     9     2    10    1
    10    10    11    2
    11    10    12   am
    12    12    13    1
    13    13    14   ar
    14    14    15   ar
    15    15    16   ar
    16    16    17   ar
    17    17    18   ar
    18    18    19    1
    19    19    20    2
    20    19    21    1
    21     9     4   ar
    22    18    13   ar
    23     1    22    1
    24     1    23    1
    25     1    24    1
    26     3    25    1
    27     5    26    1
    28     6    27    1
    29     7    28    1
    30     8    29    1
    31     9    30    1
    32    12    31    1
    33    14    32    1
    34    15    33    1
    35    16    34    1
    36    17    35    1
    37    21    36    1
@<TRIPOS>MOLECULE
51078690
 27 29 0 0 0
SMALL
GASTEIGER

@<TRIPOS>ATOM
      1 O           1.2169   -3.3372   -0.0198 O.2     1  UNL1       -0.2445
      2 C           1.2023   -2.0913    0.0464 C.2     1  UNL1        0.3451
      3 O           0.0935   -1.2826   -0.0636 O.3     1  UNL1       -0.4217
      4 C           0.4366    0.0608    0.0573 C.2     1  UNL1        0.1404
      5 C          -0.4749    1.0517   -0.0175 C.2     1  UNL1       -0.0115
      6 C          -1.8623    0.7088   -0.2262 C.ar    1  UNL1       -0.0215
      7 C          -2.4759   -0.2925    0.5253 C.ar    1  UNL1       -0.0531
      8 C          -3.7940   -0.6215    0.3167 C.ar    1  UNL1       -0.0428
      9 C          -4.5454    0.0191   -0.6340 C.ar    1  UNL1        0.0410
     10 CL         -6.2303   -0.4200   -0.8927 Cl      1  UNL1       -0.0835
     11 C          -3.9470    1.0090   -1.3804 C.ar    1  UNL1       -0.0428
     12 C          -2.6033    1.3553   -1.1774 C.ar    1  UNL1       -0.0531
     13 C           1.8631    0.1394    0.2634 C.ar    1  UNL1        0.0314
     14 C           2.7277    1.1838    0.4514 C.ar    1  UNL1       -0.0503
     15 C           4.0650    0.9594    0.6361 C.ar    1  UNL1       -0.0610
     16 C           4.5471   -0.3388    0.6325 C.ar    1  UNL1       -0.0609
     17 C           3.6710   -1.3970    0.4421 C.ar    1  UNL1       -0.0471
     18 C           2.3215   -1.1823    0.2543 C.ar    1  UNL1        0.0700
     19 H          -0.0793    2.0392    0.0907 H       1  UNL1        0.0660
     20 H          -1.8599   -0.7837    1.2662 H       1  UNL1        0.0624
     21 H          -4.2430   -1.3890    0.9054 H       1  UNL1        0.0632
     22 H          -4.5591    1.5002   -2.1169 H       1  UNL1        0.0632
     23 H          -2.1965    2.1496   -1.8050 H       1  UNL1        0.0624
     24 H           2.3365    2.2099    0.4567 H       1  UNL1        0.0625
     25 H           4.7845    1.7542    0.7896 H       1  UNL1        0.0618
     26 H           5.5976   -0.5745    0.7679 H       1  UNL1        0.0618
     27 H           4.0076   -2.4300    0.4315 H       1  UNL1        0.0626
@<TRIPOS>BOND
     1     1     2    2
     2     2     3    1
     3     3     4    1
     4     4     5    2
     5     5     6    1
     6     6     7   ar
     7     7     8   ar
     8     8     9   ar
     9     9    10    1
    10     9    11   ar
    11    11    12   ar
    12     4    13    1
    13    13    14   ar
    14    14    15   ar
    15    15    16   ar
    16    16    17   ar
    17    17    18   ar
    18    18     2    1
    19    12     6   ar
    20    18    13   ar
    21     5    19    1
    22     7    20    1
    23     8    21    1
    24    11    22    1
    25    12    23    1
    26    14    24    1
    27    15    25    1
    28    16    26    1
    29    17    27    1
@<TRIPOS>MOLECULE
51345624
 50 54 0 0 0
SMALL
GASTEIGER

@<TRIPOS>ATOM
      1 N           5.3384    0.9459   -1.9320 N.3     1  UNL1       -0.3299
      2 C           4.4753   -0.0948   -1.3575 C.3     1  UNL1       -0.0055
      3 C           4.8396   -0.1753    0.1086 C.3     1  UNL1       -0.0242
      4 C           3.9981   -1.2363    0.8157 C.3     1  UNL1        0.0250
      5 N           2.5907   -0.9290    0.7206 N.am    1  UNL1       -0.2243
      6 C           1.8812   -0.1567    1.6488 C.2     1  UNL1        0.2439
      7 O           2.2844    0.3212    2.7396 O.2     1  UNL1       -0.2731
      8 C           0.5096    0.0334    1.1437 C.3     1  UNL1        0.1093
      9 C           0.2396    1.4206    0.6381 C.3     1  UNL1        0.0020
     10 C          -1.0733    1.4627   -0.0259 C.ar    1  UNL1       -0.0147
     11 C          -1.6433    0.3761   -0.6087 C.ar    1  UNL1        0.0456
     12 N          -2.8386    0.7502   -1.1404 N.ar    1  UNL1       -0.3560
     13 C          -3.0778    2.0467   -0.9278 C.ar    1  UNL1        0.0470
     14 C          -4.0817    2.9443   -1.2216 C.ar    1  UNL1       -0.0378
     15 C          -4.0098    4.2661   -0.8387 C.ar    1  UNL1       -0.0598
     16 C          -2.9189    4.7352   -0.1423 C.ar    1  UNL1       -0.0611
     17 C          -1.8968    3.8281    0.1586 C.ar    1  UNL1       -0.0523
     18 C          -1.9868    2.5134   -0.2320 C.ar    1  UNL1        0.0032
     19 C          -0.9393   -0.9313   -0.5754 C.3     1  UNL1        0.0938
     20 C          -1.7302   -2.0046    0.0775 C.ar    1  UNL1       -0.0210
     21 C          -3.0016   -1.8791    0.5528 C.ar    1  UNL1       -0.0537
     22 C          -3.6701   -2.9437    1.1474 C.ar    1  UNL1       -0.0261
     23 C          -3.0270   -4.1699    1.2616 C.ar    1  UNL1        0.1234
     24 F          -3.6383   -5.2401    1.8348 F       1  UNL1       -0.2055
     25 C          -1.7484   -4.3162    0.7899 C.ar    1  UNL1       -0.0261
     26 C          -1.1231   -3.2365    0.2081 C.ar    1  UNL1       -0.0537
     27 N           0.3878   -0.8308   -0.0318 N.am    1  UNL1       -0.2608
     28 C           1.6563   -1.3326   -0.3022 C.2     1  UNL1        0.3126
     29 O           1.9731   -2.0439   -1.2961 O.2     1  UNL1       -0.2519
     30 H           6.2550    0.5549   -2.2427 H       1  UNL1        0.1182
     31 H           5.4991    1.6610   -1.1962 H       1  UNL1        0.1182
     32 H           4.6114   -1.0332   -1.8934 H       1  UNL1        0.0422
     33 H           3.4442    0.2679   -1.5097 H       1  UNL1        0.0422
     34 H           4.6008    0.8086    0.5598 H       1  UNL1        0.0293
     35 H           5.9145   -0.3605    0.2553 H       1  UNL1        0.0293
     36 H           4.3326   -1.3701    1.8633 H       1  UNL1        0.0470
     37 H           4.1733   -2.2075    0.2874 H       1  UNL1        0.0470
     38 H          -0.2747   -0.2561    1.8444 H       1  UNL1        0.0601
     39 H           0.1995    2.1694    1.4656 H       1  UNL1        0.0337
     40 H           1.0115    1.7236   -0.1178 H       1  UNL1        0.0337
     41 H          -3.4686    0.1176   -1.6419 H       1  UNL1        0.1657
     42 H          -4.9524    2.6202   -1.7643 H       1  UNL1        0.0638
     43 H          -4.8183    4.9760   -1.0787 H       1  UNL1        0.0618
     44 H          -2.8268    5.7588    0.1734 H       1  UNL1        0.0618
     45 H          -1.0365    4.1708    0.7006 H       1  UNL1        0.0624
     46 H          -0.8708   -1.2462   -1.6606 H       1  UNL1        0.0616
     47 H          -3.5018   -0.9465    0.4750 H       1  UNL1        0.0622
     48 H          -4.6778   -2.8384    1.5222 H       1  UNL1        0.0646
     49 H          -1.2694   -5.2852    0.8921 H       1  UNL1        0.0646
     50 H          -0.1139   -3.4082   -0.1471 H       1  UNL1        0.0622
@<TRIPOS>BOND
     1     1     2    1
     2     2     3    1
     3     3     4    1
     4     4     5    1
     5     5     6   am
     6     6     7    2
     7     6     8    1
     8     8     9    1
     9     9    10    1
    10    10    11   ar
    11    11    12   ar
    12    12    13   ar
    13    13    14   ar
    14    14    15   ar
    15    15    16   ar
    16    16    17   ar
    17    17    18   ar
    18    11    19    1
    19    19    20    1
    20    20    21   ar
    21    21    22   ar
    22    22    23   ar
    23    23    24    1
    24    23    25   ar
    25    25    26   ar
    26    19    27    1
    27    27    28   am
    28    28    29    2
    29    28     5   am
    30    27     8    1
    31    18    10   ar
    32    26    20   ar
    33    18    13   ar
    34     1    30    1
    35     1    31    1
    36     2    32    1
    37     2    33    1
    38     3    34    1
    39     3    35    1
    40     4    36    1
    41     4    37    1
    42     8    38    1
    43     9    39    1
    44     9    40    1
    45    12    41    1
    46    14    42    1
    47    15    43    1
    48    16    44    1
    49    17    45    1
    50    19    46    1
    51    21    47    1
    52    22    48    1
    53    25    49    1
    54    26    50    1
@<TRIPOS>MOLECULE
CHEMBL3979103
 46 48 0 0 0
SMALL
GASTEIGER

@<TRIPOS>ATOM
      1 N          -0.8056    1.8123    3.9347 N.am    1  UNL1       -0.3275
      2 C          -0.0727    1.2866    2.8377 C.2     1  UNL1        0.2356
      3 O           1.2014    1.3040    2.9769 O.2     1  UNL1       -0.2736
      4 C          -0.6812    0.7383    1.5983 C.3     1  UNL1        0.1278
      5 C          -1.3266    1.7746    0.8534 C.ar    1  UNL1       -0.0182
      6 C          -1.8119    1.5911   -0.4295 C.ar    1  UNL1       -0.0563
      7 C          -2.4301    2.5648   -1.1635 C.ar    1  UNL1       -0.0614
      8 C          -2.5950    3.8145   -0.6217 C.ar    1  UNL1       -0.0617
      9 C          -2.1307    4.0480    0.6472 C.ar    1  UNL1       -0.0614
     10 C          -1.5011    3.0303    1.3745 C.ar    1  UNL1       -0.0563
     11 N           0.3592    0.0004    0.9293 N.am    1  UNL1       -0.2776
     12 C           0.1875   -1.4335    0.8966 C.3     1  UNL1        0.0411
     13 C          -0.6760   -1.9450   -0.1794 C.ar    1  UNL1       -0.0300
     14 C          -0.1805   -2.2986   -1.4094 C.ar    1  UNL1       -0.0557
     15 C          -1.0120   -2.7906   -2.4294 C.ar    1  UNL1       -0.0431
     16 C          -2.3554   -2.9261   -2.2017 C.ar    1  UNL1        0.0410
     17 CL         -3.4166   -3.5431   -3.4766 Cl      1  UNL1       -0.0835
     18 C          -2.8566   -2.5744   -0.9734 C.ar    1  UNL1       -0.0431
     19 C          -2.0277   -2.0918    0.0217 C.ar    1  UNL1       -0.0557
     20 C           1.4868    0.5716    0.3300 C.2     1  UNL1        0.2478
     21 O           1.5794    1.8218    0.3767 O.2     1  UNL1       -0.2699
     22 C           2.5183   -0.1729   -0.3149 C.ar    1  UNL1        0.0369
     23 C           2.7642   -0.1334   -1.6823 C.ar    1  UNL1       -0.0496
     24 C           3.7403   -0.8127   -2.3334 C.ar    1  UNL1       -0.0610
     25 C           4.5737   -1.6212   -1.5892 C.ar    1  UNL1       -0.0617
     26 C           4.3923   -1.7129   -0.2232 C.ar    1  UNL1       -0.0610
     27 C           3.3892   -1.0056    0.3987 C.ar    1  UNL1       -0.0496
     28 H          -1.8582    1.6374    3.9514 H       1  UNL1        0.1450
     29 H          -0.3588    2.3492    4.7002 H       1  UNL1        0.1450
     30 H          -1.4369    0.0110    1.9511 H       1  UNL1        0.0648
     31 H          -1.6896    0.6360   -0.8564 H       1  UNL1        0.0621
     32 H          -2.8008    2.3864   -2.1738 H       1  UNL1        0.0618
     33 H          -3.0925    4.6038   -1.2063 H       1  UNL1        0.0618
     34 H          -2.2692    5.0319    1.0553 H       1  UNL1        0.0618
     35 H          -1.1717    3.3487    2.3629 H       1  UNL1        0.0621
     36 H          -0.2345   -1.7258    1.9106 H       1  UNL1        0.0514
     37 H           1.1638   -1.9723    0.8784 H       1  UNL1        0.0514
     38 H           0.8574   -2.2248   -1.6464 H       1  UNL1        0.0621
     39 H          -0.6178   -3.0687   -3.3987 H       1  UNL1        0.0632
     40 H          -3.9235   -2.6720   -0.7647 H       1  UNL1        0.0632
     41 H          -2.4975   -1.8352    0.9858 H       1  UNL1        0.0621
     42 H           2.1045    0.5087   -2.2825 H       1  UNL1        0.0625
     43 H           3.9016   -0.7545   -3.4037 H       1  UNL1        0.0618
     44 H           5.3610   -2.1744   -2.0808 H       1  UNL1        0.0618
     45 H           5.0221   -2.3339    0.4006 H       1  UNL1        0.0618
     46 H           3.2280   -1.0477    1.4687 H       1  UNL1        0.0625
@<TRIPOS>BOND
     1     1     2   am
     2     2     3    2
     3     2     4    1
     4     4     5    1
     5     5     6   ar
     6     6     7   ar
     7     7     8   ar
     8     8     9   ar
     9     9    10   ar
    10     4    11    1
    11    11    12    1
    12    12    13    1
    13    13    14   ar
    14    14    15   ar
    15    15    16   ar
    16    16    17    1
    17    16    18   ar
    18    18    19   ar
    19    11    20   am
    20    20    21    2
    21    20    22    1
    22    22    23   ar
    23    23    24   ar
    24    24    25   ar
    25    25    26   ar
    26    26    27   ar
    27    10     5   ar
    28    19    13   ar
    29    27    22   ar
    30     1    28    1
    31     1    29    1
    32     4    30    1
    33     6    31    1
    34     7    32    1
    35     8    33    1
    36     9    34    1
    37    10    35    1
    38    12    36    1
    39    12    37    1
    40    14    38    1
    41    15    39    1
    42    18    40    1
    43    19    41    1
    44    23    42    1
    45    24    43    1
    46    25    44    1
    47    26    45    1
    48    27    46    1
@<TRIPOS>MOLECULE
50254071
 50 50 0 0 0
SMALL
GASTEIGER

@<TRIPOS>ATOM
      1 C           6.4077    0.6402   -0.4252 C.3     1  UNL1       -0.0440
      2 C           5.4154    0.8215    0.6598 C.2     1  UNL1       -0.0796
      3 C           5.4566    2.1003    1.4331 C.3     1  UNL1       -0.0440
      4 C           4.5227   -0.1127    0.9371 C.2     1  UNL1       -0.0850
      5 C           4.3972   -1.4076    0.2342 C.3     1  UNL1       -0.0308
      6 C           2.9979   -1.5631   -0.3837 C.3     1  UNL1       -0.0285
      7 C           2.7290   -0.4983   -1.3549 C.2     1  UNL1       -0.0748
      8 C           3.6398   -0.3784   -2.5764 C.3     1  UNL1       -0.0437
      9 C           1.7532    0.3823   -1.2769 C.2     1  UNL1       -0.0680
     10 C           0.7874    0.3949   -0.1601 C.3     1  UNL1        0.0316
     11 N          -0.5814    0.1850   -0.6751 N.am    1  UNL1       -0.2959
     12 C          -1.6836    0.1567    0.2067 C.2     1  UNL1        0.3001
     13 O          -1.4821    0.3137    1.4440 O.2     1  UNL1       -0.2528
     14 N          -3.0209   -0.0384   -0.2045 N.am    1  UNL1       -0.2966
     15 C          -4.1176   -0.0586    0.7454 C.3     1  UNL1        0.0246
     16 C          -5.0604    1.0864    0.4420 C.3     1  UNL1       -0.0345
     17 C          -6.2281    0.5906   -0.3949 C.3     1  UNL1       -0.0514
     18 C          -7.0990   -0.3354    0.4309 C.3     1  UNL1       -0.0529
     19 C          -6.2253   -1.0943    1.3806 C.3     1  UNL1       -0.0514
     20 C          -4.8593   -1.3718    0.7417 C.3     1  UNL1       -0.0345
     21 H           6.8250   -0.4088   -0.4552 H       1  UNL1        0.0274
     22 H           5.9449    0.8910   -1.3865 H       1  UNL1        0.0274
     23 H           7.2937    1.3167   -0.2400 H       1  UNL1        0.0274
     24 H           6.0730    1.9046    2.3340 H       1  UNL1        0.0274
     25 H           5.9065    2.8921    0.8091 H       1  UNL1        0.0274
     26 H           4.4042    2.3949    1.7034 H       1  UNL1        0.0274
     27 H           3.8224    0.0870    1.7492 H       1  UNL1        0.0572
     28 H           4.5089   -2.2039    1.0146 H       1  UNL1        0.0310
     29 H           5.1256   -1.5080   -0.5702 H       1  UNL1        0.0310
     30 H           2.2854   -1.5768    0.4306 H       1  UNL1        0.0313
     31 H           2.9912   -2.5771   -0.8681 H       1  UNL1        0.0313
     32 H           2.9784   -0.6889   -3.4262 H       1  UNL1        0.0274
     33 H           3.9286    0.6596   -2.7471 H       1  UNL1        0.0274
     34 H           4.4959   -1.0505   -2.4535 H       1  UNL1        0.0274
     35 H           1.6499    1.1548   -2.0893 H       1  UNL1        0.0587
     36 H           0.7966    1.4691    0.2295 H       1  UNL1        0.0506
     37 H           1.0077   -0.2412    0.6933 H       1  UNL1        0.0506
     38 H          -0.7340    0.0567   -1.6982 H       1  UNL1        0.1505
     39 H          -3.2215   -0.1713   -1.2196 H       1  UNL1        0.1505
     40 H          -3.7437    0.0958    1.7784 H       1  UNL1        0.0499
     41 H          -5.4744    1.5380    1.3621 H       1  UNL1        0.0283
     42 H          -4.5322    1.8861   -0.1077 H       1  UNL1        0.0283
     43 H          -6.7749    1.4746   -0.7415 H       1  UNL1        0.0266
     44 H          -5.8086   -0.0258   -1.2251 H       1  UNL1        0.0266
     45 H          -7.5896   -1.0686   -0.2533 H       1  UNL1        0.0265
     46 H          -7.8733    0.2262    1.0012 H       1  UNL1        0.0265
     47 H          -6.0147   -0.4356    2.2577 H       1  UNL1        0.0266
     48 H          -6.7202   -2.0042    1.7149 H       1  UNL1        0.0266
     49 H          -4.3503   -2.0708    1.4459 H       1  UNL1        0.0283
     50 H          -4.9494   -1.8283   -0.2463 H       1  UNL1        0.0283
@<TRIPOS>BOND
     1     1     2    1
     2     2     3    1
     3     2     4    2
     4     4     5    1
     5     5     6    1
     6     6     7    1
     7     7     8    1
     8     7     9    2
     9     9    10    1
    10    10    11    1
    11    11    12   am
    12    12    13    2
    13    12    14   am
    14    14    15    1
    15    15    16    1
    16    16    17    1
    17    17    18    1
    18    18    19    1
    19    19    20    1
    20    20    15    1
    21     1    21    1
    22     1    22    1
    23     1    23    1
    24     3    24    1
    25     3    25    1
    26     3    26    1
    27     4    27    1
    28     5    28    1
    29     5    29    1
    30     6    30    1
    31     6    31    1
    32     8    32    1
    33     8    33    1
    34     8    34    1
    35     9    35    1
    36    10    36    1
    37    10    37    1
    38    11    38    1
    39    14    39    1
    40    15    40    1
    41    16    41    1
    42    16    42    1
    43    17    43    1
    44    17    44    1
    45    18    45    1
    46    18    46    1
    47    19    47    1
    48    19    48    1
    49    20    49    1
    50    20    50    1
@<TRIPOS>MOLECULE
1150897
 47 49 0 0 0
SMALL
GASTEIGER

@<TRIPOS>ATOM
      1 C           6.6163   -0.4517   -0.0267 C.3     1  UNL1       -0.0587
      2 C           5.7048    0.2102   -1.0593 C.3     1  UNL1       -0.0215
      3 C           6.2043    1.6371   -1.2613 C.3     1  UNL1       -0.0587
      4 C           4.2996    0.2346   -0.5728 C.ar    1  UNL1       -0.0447
      5 C           3.8997    1.1190    0.4086 C.ar    1  UNL1       -0.0566
      6 C           2.5914    1.1248    0.8453 C.ar    1  UNL1       -0.0402
      7 C           1.6408    0.2631    0.3284 C.ar    1  UNL1        0.0335
      8 N           0.3088    0.3083    0.8012 N.am    1  UNL1       -0.2840
      9 C          -0.1488   -0.4512    1.9073 C.2     1  UNL1        0.2370
     10 O           0.7628   -1.1987    2.4335 O.2     1  UNL1       -0.2735
     11 C          -1.4843   -0.4753    2.4837 C.3     1  UNL1        0.1014
     12 N          -2.5090   -1.0920    1.6410 N.ar    1  UNL1       -0.3157
     13 C          -2.7414   -2.4049    1.5850 C.ar    1  UNL1        0.0993
     14 N          -3.7254   -2.6315    0.6937 N.ar    1  UNL1       -0.2177
     15 C          -4.1167   -1.4696    0.1869 C.ar    1  UNL1        0.1678
     16 C          -3.3481   -0.4928    0.7846 C.ar    1  UNL1        0.1519
     17 C          -3.5648    0.8167    0.4338 C.ar    1  UNL1        0.2822
     18 O          -2.8747    1.7060    0.9704 O.2     1  UNL1       -0.2652
     19 N          -4.5102    1.1406   -0.4798 N.ar    1  UNL1       -0.2622
     20 C          -4.7429    2.5401   -0.8475 C.3     1  UNL1        0.0196
     21 C          -5.2163    0.1577   -1.0214 C.ar    1  UNL1        0.3331
     22 O          -6.0918    0.4849   -1.8686 O.2     1  UNL1       -0.2462
     23 N          -5.0686   -1.1423   -0.7343 N.ar    1  UNL1       -0.2796
     24 C          -5.8746   -2.1815   -1.3664 C.3     1  UNL1        0.0181
     25 C           2.0420   -0.6098   -0.6423 C.ar    1  UNL1       -0.0402
     26 C           3.3481   -0.6173   -1.0796 C.ar    1  UNL1       -0.0566
     27 H           6.2446   -1.4672    0.1304 H       1  UNL1        0.0235
     28 H           6.6868    0.1788    0.8836 H       1  UNL1        0.0235
     29 H           7.6591   -0.4410   -0.4587 H       1  UNL1        0.0235
     30 H           5.7144   -0.3759   -1.9936 H       1  UNL1        0.0343
     31 H           6.3556    2.0891   -0.2629 H       1  UNL1        0.0235
     32 H           7.1428    1.6321   -1.8537 H       1  UNL1        0.0235
     33 H           5.4598    2.1724   -1.8837 H       1  UNL1        0.0235
     34 H           4.6407    1.8177    0.8392 H       1  UNL1        0.0621
     35 H           2.2877    1.8349    1.6278 H       1  UNL1        0.0636
     36 H          -0.3661    0.9189    0.3129 H       1  UNL1        0.1549
     37 H          -1.9012    0.5319    2.7295 H       1  UNL1        0.0588
     38 H          -1.4369   -0.9947    3.4885 H       1  UNL1        0.0588
     39 H          -2.2381   -3.1733    2.1536 H       1  UNL1        0.1030
     40 H          -4.8912    2.6328   -1.9293 H       1  UNL1        0.0458
     41 H          -5.6421    2.8633   -0.2503 H       1  UNL1        0.0458
     42 H          -3.8674    3.1489   -0.5609 H       1  UNL1        0.0458
     43 H          -6.9444   -1.9259   -1.1652 H       1  UNL1        0.0458
     44 H          -5.6882   -2.1956   -2.4695 H       1  UNL1        0.0458
     45 H          -5.5736   -3.1574   -0.9681 H       1  UNL1        0.0458
     46 H           1.3382   -1.2923   -1.0682 H       1  UNL1        0.0636
     47 H           3.6186   -1.3221   -1.8457 H       1  UNL1        0.0621
@<TRIPOS>BOND
     1     1     2    1
     2     2     3    1
     3     2     4    1
     4     4     5   ar
     5     5     6   ar
     6     6     7   ar
     7     7     8    1
     8     8     9   am
     9     9    10    2
    10     9    11    1
    11    11    12    1
    12    12    13   ar
    13    13    14   ar
    14    14    15   ar
    15    15    16   ar
    16    16    17   ar
    17    17    18    2
    18    17    19   ar
    19    19    20    1
    20    19    21   ar
    21    21    22    2
    22    21    23   ar
    23    23    24    1
    24     7    25   ar
    25    25    26   ar
    26    26     4   ar
    27    16    12   ar
    28    23    15   ar
    29     1    27    1
    30     1    28    1
    31     1    29    1
    32     2    30    1
    33     3    31    1
    34     3    32    1
    35     3    33    1
    36     5    34    1
    37     6    35    1
    38     8    36    1
    39    11    37    1
    40    11    38    1
    41    13    39    1
    42    20    40    1
    43    20    41    1
    44    20    42    1
    45    24    43    1
    46    24    44    1
    47    24    45    1
    48    25    46    1
    49    26    47    1
@<TRIPOS>MOLECULE
121513880
 57 59 0 0 0
SMALL
GASTEIGER

@<TRIPOS>ATOM
      1 C          -6.9819   -0.1806   -0.1038 C.3     1  UNL1       -0.0497
      2 C          -6.3089    1.0958    0.2961 C.3     1  UNL1        0.0049
      3 C          -6.8762    1.6637    1.6011 C.3     1  UNL1       -0.0497
      4 N          -4.9087    1.0553    0.3865 N.3     1  UNL1       -0.2974
      5 C          -4.2865    0.1562    1.2678 C.3     1  UNL1        0.0136
      6 C          -3.5100   -0.8684    0.4601 C.3     1  UNL1        0.0333
      7 N          -3.5986   -0.5574   -0.9617 N.3     1  UNL1       -0.1741
      8 S          -2.6152   -1.6773   -1.8075 S.O2    1  UNL1        0.0609
      9 O          -2.7446   -1.3252   -3.2860 O.2     1  UNL1       -0.1528
     10 O          -3.1256   -3.0939   -1.5867 O.2     1  UNL1       -0.1528
     11 C          -0.9612   -1.5287   -1.3176 C.ar    1  UNL1        0.1056
     12 C          -0.3802   -2.2530   -0.2971 C.ar    1  UNL1       -0.0336
     13 C           0.9459   -2.1044    0.0449 C.ar    1  UNL1       -0.0386
     14 C           1.7100   -1.2007   -0.6599 C.ar    1  UNL1        0.0338
     15 N           3.0918   -0.9978   -0.3683 N.am    1  UNL1       -0.2813
     16 C           3.5883   -0.0627    0.5650 C.2     1  UNL1        0.2548
     17 O           2.7858    0.6464    1.1969 O.2     1  UNL1       -0.2696
     18 C           5.0340    0.0277    0.7439 C.ar    1  UNL1        0.1139
     19 C           5.7149   -0.5473    1.7940 C.ar    1  UNL1       -0.0425
     20 C           7.0980   -0.4290    1.9155 C.ar    1  UNL1       -0.0490
     21 C           7.8397    0.2697    0.9869 C.ar    1  UNL1        0.0612
     22 C           9.3107    0.4069    1.0998 C.3     1  UNL1        0.4176
     23 F           9.8520   -0.5348    1.9451 F       1  UNL1       -0.1659
     24 F           9.6129    1.6485    1.6622 F       1  UNL1       -0.1659
     25 F           9.9480    0.2817   -0.1215 F       1  UNL1       -0.1659
     26 C           7.1533    0.8471   -0.0677 C.ar    1  UNL1        0.0280
     27 C           5.7894    0.7314   -0.1888 C.ar    1  UNL1        0.2857
     28 N           5.0998    1.3303   -1.2792 N.pl3   1  UNL1        0.0804
     29 O           3.9315    1.7324   -1.0878 O.2     1  UNL1        0.0415
     30 O           5.7053    1.4588   -2.5070 O.co2   1  UNL1       -0.5760
     31 C           1.1343   -0.4689   -1.6846 C.ar    1  UNL1       -0.0386
     32 C          -0.1761   -0.6172   -2.0223 C.ar    1  UNL1       -0.0336
     33 C          -3.1538    0.8020   -1.2120 C.3     1  UNL1        0.0333
     34 C          -4.1290    1.7545   -0.5553 C.3     1  UNL1        0.0136
     35 H          -6.3505   -0.8959   -0.6263 H       1  UNL1        0.0245
     36 H          -7.8383    0.0489   -0.7867 H       1  UNL1        0.0245
     37 H          -7.4550   -0.6016    0.8163 H       1  UNL1        0.0245
     38 H          -6.5709    1.8814   -0.4713 H       1  UNL1        0.0457
     39 H          -6.9637    0.8163    2.2915 H       1  UNL1        0.0245
     40 H          -7.8305    2.1920    1.4132 H       1  UNL1        0.0245
     41 H          -6.1225    2.4080    1.9552 H       1  UNL1        0.0245
     42 H          -3.5675    0.7006    1.9056 H       1  UNL1        0.0440
     43 H          -4.9727   -0.4216    1.9136 H       1  UNL1        0.0440
     44 H          -3.8754   -1.8873    0.5998 H       1  UNL1        0.0456
     45 H          -2.4445   -0.7841    0.7364 H       1  UNL1        0.0456
     46 H          -0.9938   -2.9591    0.2465 H       1  UNL1        0.0638
     47 H           1.3666   -2.6953    0.8565 H       1  UNL1        0.0637
     48 H           3.7495   -1.6201   -0.9213 H       1  UNL1        0.1551
     49 H           5.1405   -1.0935    2.5232 H       1  UNL1        0.0627
     50 H           7.6082   -0.8929    2.7555 H       1  UNL1        0.0623
     51 H           7.7530    1.4035   -0.8023 H       1  UNL1        0.0691
     52 H           1.7613    0.2339   -2.2188 H       1  UNL1        0.0637
     53 H          -0.6057   -0.0363   -2.8268 H       1  UNL1        0.0638
     54 H          -2.9302    1.0211   -2.2522 H       1  UNL1        0.0456
     55 H          -2.1872    0.8921   -0.6332 H       1  UNL1        0.0456
     56 H          -3.5319    2.5257   -0.0004 H       1  UNL1        0.0440
     57 H          -4.7279    2.3033   -1.3243 H       1  UNL1        0.0440
@<TRIPOS>UNITY_ATOM_ATTR
28 1
charge 1
30 1
charge -1
@<TRIPOS>BOND
     1     1     2    1
     2     2     3    1
     3     2     4    1
     4     4     5    1
     5     5     6    1
     6     6     7    1
     7     7     8    1
     8     8     9    2
     9     8    10    2
    10     8    11    1
    11    11    12   ar
    12    12    13   ar
    13    13    14   ar
    14    14    15    1
    15    15    16   am
    16    16    17    2
    17    16    18    1
    18    18    19   ar
    19    19    20   ar
    20    20    21   ar
    21    21    22    1
    22    22    23    1
    23    22    24    1
    24    22    25    1
    25    21    26   ar
    26    26    27   ar
    27    27    28    1
    28    28    29    2
    29    28    30    1
    30    14    31   ar
    31    31    32   ar
    32     7    33    1
    33    33    34    1
    34    34     4    1
    35    32    11   ar
    36    27    18   ar
    37     1    35    1
    38     1    36    1
    39     1    37    1
    40     2    38    1
    41     3    39    1
    42     3    40    1
    43     3    41    1
    44     5    42    1
    45     5    43    1
    46     6    44    1
    47     6    45    1
    48    12    46    1
    49    13    47    1
    50    15    48    1
    51    19    49    1
    52    20    50    1
    53    26    51    1
    54    31    52    1
    55    32    53    1
    56    33    54    1
    57    33    55    1
    58    34    56    1
    59    34    57    1
@<TRIPOS>MOLECULE
CHEMBL4439190
 46 48 0 0 0
SMALL
GASTEIGER

@<TRIPOS>ATOM
      1 N           5.6096    5.7689    1.8658 N.1     1  UNL1       -0.1909
      2 C           5.1753    4.7204    1.6649 C.1     1  UNL1        0.0992
      3 C           4.6516    3.3995    1.4215 C.ar    1  UNL1        0.0533
      4 C           4.1722    2.6510    2.4833 C.ar    1  UNL1       -0.0424
      5 C           3.6739    1.3933    2.2768 C.ar    1  UNL1       -0.0327
      6 C           3.6254    0.8203    1.0247 C.ar    1  UNL1        0.1238
      7 S           2.9763   -0.8006    0.7587 S.O2    1  UNL1        0.0624
      8 O           2.5255   -1.3312    2.0666 O.2     1  UNL1       -0.1528
      9 O           4.0168   -1.7041    0.1882 O.2     1  UNL1       -0.1528
     10 N           1.6322   -0.6153   -0.3035 N.3     1  UNL1       -0.1717
     11 C           0.5967    0.2044    0.2688 C.3     1  UNL1        0.0460
     12 C          -0.6054   -0.2355   -0.5815 C.3     1  UNL1        0.1281
     13 S          -2.0475    0.4599    0.1043 S.O2    1  UNL1        0.0038
     14 O          -1.8558    1.9676    0.1511 O.2     1  UNL1       -0.1690
     15 O          -2.3095    0.0321    1.5155 O.2     1  UNL1       -0.1690
     16 C          -3.4939    0.1602   -0.8137 C.ar    1  UNL1        0.0887
     17 C          -3.9313    0.9341   -1.8613 C.ar    1  UNL1       -0.0355
     18 C          -5.0943    0.6332   -2.5321 C.ar    1  UNL1       -0.0416
     19 C          -5.8661   -0.4555   -2.1802 C.ar    1  UNL1        0.0411
     20 CL         -7.3450   -0.8688   -3.0047 Cl      1  UNL1       -0.0835
     21 C          -5.4424   -1.2311   -1.1422 C.ar    1  UNL1       -0.0416
     22 C          -4.2703   -0.9244   -0.4693 C.ar    1  UNL1       -0.0355
     23 C          -0.4706   -1.7121   -0.5220 C.3     1  UNL1        0.1268
     24 O          -1.0836   -2.3767   -1.5572 O.3     1  UNL1       -0.3830
     25 C          -0.7785   -2.3196    0.8251 C.3     1  UNL1        0.0761
     26 O          -0.3283   -3.6621    0.8171 O.3     1  UNL1       -0.3921
     27 C           1.0491   -1.8737   -0.6824 C.3     1  UNL1        0.0534
     28 C           4.1020    1.5704   -0.0169 C.ar    1  UNL1        0.0685
     29 CL          4.0465    0.8483   -1.6295 Cl      1  UNL1       -0.0815
     30 C           4.6010    2.8290    0.1895 C.ar    1  UNL1       -0.0241
     31 H           4.1874    3.0560    3.4905 H       1  UNL1        0.0631
     32 H           3.3036    0.8173    3.1071 H       1  UNL1        0.0638
     33 H           0.8535    1.2687    0.0394 H       1  UNL1        0.0464
     34 H           0.4025    0.0579    1.3271 H       1  UNL1        0.0464
     35 H          -0.3952    0.1261   -1.5982 H       1  UNL1        0.0584
     36 H          -3.3467    1.7815   -2.1484 H       1  UNL1        0.0637
     37 H          -5.4353    1.2438   -3.3550 H       1  UNL1        0.0633
     38 H          -6.0420   -2.0909   -0.8550 H       1  UNL1        0.0633
     39 H          -4.0246   -1.6022    0.3397 H       1  UNL1        0.0637
     40 H          -1.6756   -3.0682   -1.1786 H       1  UNL1        0.2104
     41 H          -0.2282   -1.8448    1.6432 H       1  UNL1        0.0587
     42 H          -1.8685   -2.3676    0.9848 H       1  UNL1        0.0587
     43 H          -0.9827   -4.2512    0.3591 H       1  UNL1        0.2095
     44 H           1.4314   -2.7145   -0.0742 H       1  UNL1        0.0474
     45 H           1.3191   -2.0757   -1.7367 H       1  UNL1        0.0474
     46 H           4.9698    3.3820   -0.6711 H       1  UNL1        0.0645
@<TRIPOS>BOND
     1     1     2    3
     2     2     3    1
     3     3     4   ar
     4     4     5   ar
     5     5     6   ar
     6     6     7    1
     7     7     8    2
     8     7     9    2
     9     7    10    1
    10    10    11    1
    11    11    12    1
    12    12    13    1
    13    13    14    2
    14    13    15    2
    15    13    16    1
    16    16    17   ar
    17    17    18   ar
    18    18    19   ar
    19    19    20    1
    20    19    21   ar
    21    21    22   ar
    22    12    23    1
    23    23    24    1
    24    23    25    1
    25    25    26    1
    26    23    27    1
    27     6    28   ar
    28    28    29    1
    29    28    30   ar
    30    30     3   ar
    31    27    10    1
    32    22    16   ar
    33     4    31    1
    34     5    32    1
    35    11    33    1
    36    11    34    1
    37    12    35    1
    38    17    36    1
    39    18    37    1
    40    21    38    1
    41    22    39    1
    42    24    40    1
    43    25    41    1
    44    25    42    1
    45    26    43    1
    46    27    44    1
    47    27    45    1
    48    30    46    1
@<TRIPOS>MOLECULE
51345620
 52 57 0 0 0
SMALL
GASTEIGER

@<TRIPOS>ATOM
      1 O           2.2030    1.5435    2.1112 O.2     1  UNL1       -0.2731
      2 C           1.5724    0.6479    1.5101 C.2     1  UNL1        0.2442
      3 C           0.1878    0.6974    1.0693 C.3     1  UNL1        0.1093
      4 C          -0.2257    2.0309    0.4916 C.3     1  UNL1        0.0020
      5 C          -1.6562    1.8893    0.1367 C.ar    1  UNL1       -0.0147
      6 C          -2.0223    0.7598   -0.5818 C.ar    1  UNL1        0.0456
      7 N          -3.3699    0.7934   -0.8183 N.ar    1  UNL1       -0.3560
      8 C          -3.8756    1.9033   -0.2767 C.ar    1  UNL1        0.0470
      9 C          -5.1527    2.3976   -0.2353 C.ar    1  UNL1       -0.0378
     10 C          -5.3717    3.6019    0.4149 C.ar    1  UNL1       -0.0598
     11 C          -4.3314    4.2828    1.0036 C.ar    1  UNL1       -0.0611
     12 C          -3.0495    3.7836    0.9603 C.ar    1  UNL1       -0.0523
     13 C          -2.8211    2.5921    0.3192 C.ar    1  UNL1        0.0032
     14 C          -0.9933   -0.2364   -0.9606 C.3     1  UNL1        0.0938
     15 C          -1.5884   -1.6094   -1.0037 C.ar    1  UNL1       -0.0211
     16 C          -1.8503   -2.2727    0.1651 C.ar    1  UNL1       -0.0551
     17 C          -2.3975   -3.5386    0.1931 C.ar    1  UNL1       -0.0431
     18 C          -2.6785   -4.1279   -1.0163 C.ar    1  UNL1        0.0410
     19 CL         -3.3763   -5.7398   -1.0294 Cl      1  UNL1       -0.0835
     20 C          -2.4275   -3.4887   -2.2120 C.ar    1  UNL1       -0.0431
     21 C          -1.8840   -2.2334   -2.1949 C.ar    1  UNL1       -0.0551
     22 N           0.0778   -0.2893    0.0157 N.am    1  UNL1       -0.2608
     23 C           1.1748   -1.1745    0.2206 C.2     1  UNL1        0.3128
     24 O           1.2949   -2.3082   -0.3450 O.2     1  UNL1       -0.2519
     25 N           2.1033   -0.6114    1.1383 N.am    1  UNL1       -0.2199
     26 C           3.3542   -1.2283    1.5948 C.3     1  UNL1        0.0489
     27 C           4.4754   -0.8425    0.6934 C.ar    1  UNL1       -0.0294
     28 C           4.8100   -1.5823   -0.4141 C.ar    1  UNL1       -0.0543
     29 C           5.8526   -1.1964   -1.2258 C.ar    1  UNL1       -0.0261
     30 C           6.5534   -0.0661   -0.9172 C.ar    1  UNL1        0.1234
     31 F           7.5824    0.3062   -1.7268 F       1  UNL1       -0.2055
     32 C           6.2263    0.6807    0.1885 C.ar    1  UNL1       -0.0261
     33 C           5.1730    0.2942    1.0118 C.ar    1  UNL1       -0.0543
     34 H          -0.5451    0.4275    1.8812 H       1  UNL1        0.0601
     35 H           0.3235    2.1691   -0.4749 H       1  UNL1        0.0337
     36 H          -0.0456    2.8666    1.1939 H       1  UNL1        0.0337
     37 H          -3.9025    0.0509   -1.3460 H       1  UNL1        0.1657
     38 H          -6.0179    1.9223   -0.6727 H       1  UNL1        0.0638
     39 H          -6.3564    4.0129    0.4640 H       1  UNL1        0.0618
     40 H          -4.5030    5.2424    1.5223 H       1  UNL1        0.0618
     41 H          -2.2305    4.3244    1.4265 H       1  UNL1        0.0624
     42 H          -0.5637    0.0030   -1.9767 H       1  UNL1        0.0616
     43 H          -1.6373   -1.8291    1.1459 H       1  UNL1        0.0621
     44 H          -2.5900   -4.0301    1.1328 H       1  UNL1        0.0632
     45 H          -2.6548   -3.9660   -3.1767 H       1  UNL1        0.0632
     46 H          -1.6913   -1.7408   -3.1498 H       1  UNL1        0.0621
     47 H           3.5836   -0.9907    2.6347 H       1  UNL1        0.0519
     48 H           3.2203   -2.3284    1.5186 H       1  UNL1        0.0519
     49 H           4.2337   -2.4772   -0.6340 H       1  UNL1        0.0622
     50 H           6.1151   -1.7939   -2.1115 H       1  UNL1        0.0646
     51 H           6.7752    1.5902    0.4541 H       1  UNL1        0.0646
     52 H           4.9171    0.8882    1.8866 H       1  UNL1        0.0622
@<TRIPOS>BOND
     1     1     2    2
     2     2     3    1
     3     3     4    1
     4     4     5    1
     5     5     6   ar
     6     6     7   ar
     7     7     8   ar
     8     8     9   ar
     9     9    10   ar
    10    10    11   ar
    11    11    12   ar
    12    12    13   ar
    13     6    14    1
    14    14    15    1
    15    15    16   ar
    16    16    17   ar
    17    17    18   ar
    18    18    19    1
    19    18    20   ar
    20    20    21   ar
    21    14    22    1
    22    22    23   am
    23    23    24    2
    24    23    25   am
    25    25    26    1
    26    26    27    1
    27    27    28   ar
    28    28    29   ar
    29    29    30   ar
    30    30    31    1
    31    30    32   ar
    32    32    33   ar
    33    25     2   am
    34    33    27   ar
    35    22     3    1
    36    13     5   ar
    37    21    15   ar
    38    13     8   ar
    39     3    34    1
    40     4    35    1
    41     4    36    1
    42     7    37    1
    43     9    38    1
    44    10    39    1
    45    11    40    1
    46    12    41    1
    47    14    42    1
    48    16    43    1
    49    17    44    1
    50    20    45    1
    51    21    46    1
    52    26    47    1
    53    26    48    1
    54    28    49    1
    55    29    50    1
    56    32    51    1
    57    33    52    1
@<TRIPOS>MOLECULE
51324124
 71 75 0 0 0
SMALL
GASTEIGER

@<TRIPOS>ATOM
      1 C           7.3124   -0.3998    2.0792 C.3     1  UNL1        0.0788
      2 O           6.7105   -0.7017    3.3220 O.3     1  UNL1       -0.4951
      3 C           5.3701   -0.9974    3.4629 C.ar    1  UNL1        0.1206
      4 C           4.9015   -1.2766    4.7432 C.ar    1  UNL1       -0.0165
      5 C           3.5785   -1.5799    4.9546 C.ar    1  UNL1       -0.0162
      6 C           2.6795   -1.6122    3.8811 C.ar    1  UNL1        0.1235
      7 O           1.3505   -1.9270    4.0865 O.3     1  UNL1       -0.4948
      8 C           0.7730   -2.2268    5.3396 C.3     1  UNL1        0.0788
      9 C           3.1136   -1.3388    2.6122 C.ar    1  UNL1       -0.0001
     10 C           2.2071   -1.2787    1.4547 C.3     1  UNL1        0.0029
     11 CA          1.6662    0.0660    1.2104 C.3     1  UNL1        0.1037
     12 N           0.9092    0.7053    2.2317 N.am    1  UNL1       -0.3021
     13 C           0.2520    1.9549    1.9472 C.2     1  UNL1        0.2345
     14 O           0.0458    2.7972    2.8406 O.2     1  UNL1       -0.2737
     15 CA         -0.1810    2.2314    0.5647 C.3     1  UNL1        0.1072
     16 C          -1.3426    3.1612    0.4838 C.3     1  UNL1        0.0035
     17 C          -2.1633    2.9610   -0.7196 C.ar    1  UNL1        0.0052
     18 C          -2.8559    4.0427   -1.2385 C.ar    1  UNL1        0.1239
     19 O          -2.7717    5.2819   -0.6268 O.3     1  UNL1       -0.4948
     20 C          -3.4812    6.3698   -1.1665 C.3     1  UNL1        0.0788
     21 C          -3.6332    3.8926   -2.3659 C.ar    1  UNL1       -0.0162
     22 C          -3.7205    2.6392   -2.9865 C.ar    1  UNL1       -0.0161
     23 C          -3.0334    1.5652   -2.4723 C.ar    1  UNL1        0.1258
     24 O          -3.0556    0.2966   -3.0106 O.3     1  UNL1       -0.4948
     25 C          -3.8493    0.1055   -4.1729 C.3     1  UNL1        0.0788
     26 C          -2.2469    1.7301   -1.3264 C.ar    1  UNL1        0.0251
     27 C          -1.5356    0.5950   -0.7804 C.3     1  UNL1        0.0746
     28 C          -1.3159   -0.5072   -1.7440 C.2     1  UNL1       -0.0587
     29 C          -1.8206   -1.7144   -1.5957 C.2     1  UNL1       -0.0565
     30 C          -1.6256   -2.8199   -2.5215 C.ar    1  UNL1       -0.0253
     31 C          -0.8936   -2.7702   -3.6781 C.ar    1  UNL1       -0.0546
     32 C          -0.7423   -3.8508   -4.5270 C.ar    1  UNL1       -0.0612
     33 C          -1.3457   -5.0598   -4.2270 C.ar    1  UNL1       -0.0617
     34 C          -2.0845   -5.1285   -3.0700 C.ar    1  UNL1       -0.0612
     35 C          -2.2255   -4.0375   -2.2317 C.ar    1  UNL1       -0.0546
     36 N          -0.3408    0.9788   -0.0868 N.am    1  UNL1       -0.2774
     37 C           0.7636    0.0634   -0.0151 C.2     1  UNL1        0.2376
     38 O           1.0008   -0.7418   -0.9431 O.2     1  UNL1       -0.2735
     39 C           4.4706   -1.0339    2.4271 C.ar    1  UNL1       -0.0132
     40 H           7.4172   -1.2490    1.4052 H       1  UNL1        0.0660
     41 H           6.8161    0.4946    1.6006 H       1  UNL1        0.0660
     42 H           8.3461   -0.0281    2.3167 H       1  UNL1        0.0660
     43 H           5.6012   -1.2507    5.5767 H       1  UNL1        0.0655
     44 H           3.2072   -1.8009    5.9580 H       1  UNL1        0.0655
     45 H          -0.3286   -2.1545    5.3213 H       1  UNL1        0.0660
     46 H           1.1988   -1.5836    6.1618 H       1  UNL1        0.0660
     47 H           1.0368   -3.2697    5.6027 H       1  UNL1        0.0660
     48 H           1.4270   -2.0753    1.5208 H       1  UNL1        0.0337
     49 H           2.8393   -1.5497    0.5524 H       1  UNL1        0.0337
     50 HA          2.5211    0.7846    0.9694 H       1  UNL1        0.0598
     51 H           0.7826    0.3548    3.1977 H       1  UNL1        0.1495
     52 HA          0.6914    2.7671    0.0850 H       1  UNL1        0.0600
     53 H          -1.9761    3.0367    1.3797 H       1  UNL1        0.0337
     54 H          -0.9876    4.2181    0.4826 H       1  UNL1        0.0337
     55 H          -3.3007    6.4337   -2.2460 H       1  UNL1        0.0660
     56 H          -4.5649    6.1744   -1.0175 H       1  UNL1        0.0660
     57 H          -3.1829    7.3381   -0.6871 H       1  UNL1        0.0660
     58 H          -4.1978    4.6831   -2.8252 H       1  UNL1        0.0655
     59 H          -4.3195    2.4903   -3.8663 H       1  UNL1        0.0655
     60 H          -3.5838    0.9018   -4.8926 H       1  UNL1        0.0660
     61 H          -3.7298   -0.8993   -4.6021 H       1  UNL1        0.0660
     62 H          -4.9111    0.2869   -3.8377 H       1  UNL1        0.0660
     63 H          -2.2066    0.1596    0.0256 H       1  UNL1        0.0597
     64 H          -0.7062   -0.3406   -2.6321 H       1  UNL1        0.0594
     65 H          -2.4251   -1.8496   -0.6947 H       1  UNL1        0.0621
     66 H          -0.4120   -1.8437   -3.9394 H       1  UNL1        0.0623
     67 H          -0.1497   -3.7803   -5.4451 H       1  UNL1        0.0618
     68 H          -1.2218   -5.9028   -4.8997 H       1  UNL1        0.0618
     69 H          -2.5590   -6.0634   -2.8245 H       1  UNL1        0.0618
     70 H          -2.8161   -4.1050   -1.3120 H       1  UNL1        0.0623
     71 H           4.8540   -0.8125    1.4306 H       1  UNL1        0.0658
@<TRIPOS>BOND
     1     1     2    1
     2     2     3    1
     3     3     4   ar
     4     4     5   ar
     5     5     6   ar
     6     6     7    1
     7     7     8    1
     8     6     9   ar
     9     9    10    1
    10    10    11    1
    11    11    12    1
    12    12    13   am
    13    13    14    2
    14    13    15    1
    15    15    16    1
    16    16    17    1
    17    17    18   ar
    18    18    19    1
    19    19    20    1
    20    18    21   ar
    21    21    22   ar
    22    22    23   ar
    23    23    24    1
    24    24    25    1
    25    23    26   ar
    26    26    27    1
    27    27    28    1
    28    28    29    2
    29    29    30    1
    30    30    31   ar
    31    31    32   ar
    32    32    33   ar
    33    33    34   ar
    34    34    35   ar
    35    27    36    1
    36    36    37   am
    37    37    38    2
    38     9    39   ar
    39    39     3   ar
    40    37    11    1
    41    36    15    1
    42    26    17   ar
    43    35    30   ar
    44     1    40    1
    45     1    41    1
    46     1    42    1
    47     4    43    1
    48     5    44    1
    49     8    45    1
    50     8    46    1
    51     8    47    1
    52    10    48    1
    53    10    49    1
    54    11    50    1
    55    12    51    1
    56    15    52    1
    57    16    53    1
    58    16    54    1
    59    20    55    1
    60    20    56    1
    61    20    57    1
    62    21    58    1
    63    22    59    1
    64    25    60    1
    65    25    61    1
    66    25    62    1
    67    27    63    1
    68    28    64    1
    69    29    65    1
    70    31    66    1
    71    32    67    1
    72    33    68    1
    73    34    69    1
    74    35    70    1
    75    39    71    1
@<TRIPOS>MOLECULE
50254060
 44 44 0 0 0
SMALL
GASTEIGER

@<TRIPOS>ATOM
      1 C          -5.1421    0.0520    1.4954 C.3     1  UNL1       -0.0440
      2 C          -3.9145   -0.5472    0.9268 C.2     1  UNL1       -0.0796
      3 C          -2.7482   -0.7180    1.8187 C.3     1  UNL1       -0.0440
      4 C          -3.8613   -0.9186   -0.3378 C.2     1  UNL1       -0.0850
      5 C          -2.6567   -1.5262   -0.9661 C.3     1  UNL1       -0.0308
      6 C          -2.1455   -0.6968   -2.1249 C.3     1  UNL1       -0.0285
      7 C          -1.7563    0.6590   -1.7768 C.2     1  UNL1       -0.0731
      8 C          -2.7146    1.6426   -1.1595 C.3     1  UNL1       -0.0437
      9 C          -0.5367    1.1128   -1.9807 C.2     1  UNL1       -0.0480
     10 C           0.6153    0.4228   -2.5552 C.3     1  UNL1        0.1113
     11 O           1.7022    0.3711   -1.6331 O.3     1  UNL1       -0.4570
     12 C           1.6614   -0.2254   -0.3950 C.2     1  UNL1        0.3395
     13 O           0.5963   -0.7726   -0.0267 O.2     1  UNL1       -0.2450
     14 C           2.8450   -0.2278    0.4938 C.ar    1  UNL1        0.0593
     15 C           2.8004   -0.8252    1.7310 C.ar    1  UNL1       -0.0478
     16 C           3.9268   -0.8168    2.5544 C.ar    1  UNL1       -0.0607
     17 C           5.0993   -0.2184    2.1575 C.ar    1  UNL1       -0.0588
     18 C           5.1407    0.3792    0.9173 C.ar    1  UNL1       -0.0497
     19 C           6.3974    1.0313    0.4691 C.3     1  UNL1       -0.0397
     20 C           4.0147    0.3740    0.0875 C.ar    1  UNL1       -0.0448
     21 H          -5.2188   -0.1535    2.5873 H       1  UNL1        0.0274
     22 H          -5.0549    1.1629    1.3239 H       1  UNL1        0.0274
     23 H          -6.0083   -0.2969    0.9287 H       1  UNL1        0.0274
     24 H          -2.7961    0.0442    2.6384 H       1  UNL1        0.0274
     25 H          -1.7870   -0.5719    1.3227 H       1  UNL1        0.0274
     26 H          -2.7300   -1.7304    2.2748 H       1  UNL1        0.0274
     27 H          -4.7245   -0.7980   -1.0158 H       1  UNL1        0.0572
     28 H          -1.8864   -1.8374   -0.2734 H       1  UNL1        0.0310
     29 H          -3.0371   -2.4785   -1.4455 H       1  UNL1        0.0310
     30 H          -1.3107   -1.2590   -2.5507 H       1  UNL1        0.0313
     31 H          -2.9436   -0.7118   -2.9072 H       1  UNL1        0.0313
     32 H          -2.5242    1.7910   -0.0880 H       1  UNL1        0.0274
     33 H          -3.7560    1.3756   -1.3126 H       1  UNL1        0.0274
     34 H          -2.5432    2.6117   -1.6794 H       1  UNL1        0.0274
     35 H          -0.3331    2.1812   -1.6757 H       1  UNL1        0.0605
     36 H           1.0294    1.0594   -3.4080 H       1  UNL1        0.0743
     37 H           0.3568   -0.5496   -2.9518 H       1  UNL1        0.0743
     38 H           1.8788   -1.2950    2.0419 H       1  UNL1        0.0626
     39 H           3.9105   -1.2832    3.5339 H       1  UNL1        0.0618
     40 H           5.9557   -0.2279    2.8171 H       1  UNL1        0.0620
     41 H           6.1240    1.7521   -0.3346 H       1  UNL1        0.0278
     42 H           6.9207    1.5374    1.3053 H       1  UNL1        0.0278
     43 H           7.1045    0.2830    0.0538 H       1  UNL1        0.0278
     44 H           4.0500    0.8427   -0.8828 H       1  UNL1        0.0628
@<TRIPOS>BOND
     1     1     2    1
     2     2     3    1
     3     2     4    2
     4     4     5    1
     5     5     6    1
     6     6     7    1
     7     7     8    1
     8     7     9    2
     9     9    10    1
    10    10    11    1
    11    11    12    1
    12    12    13    2
    13    12    14    1
    14    14    15   ar
    15    15    16   ar
    16    16    17   ar
    17    17    18   ar
    18    18    19    1
    19    18    20   ar
    20    20    14   ar
    21     1    21    1
    22     1    22    1
    23     1    23    1
    24     3    24    1
    25     3    25    1
    26     3    26    1
    27     4    27    1
    28     5    28    1
    29     5    29    1
    30     6    30    1
    31     6    31    1
    32     8    32    1
    33     8    33    1
    34     8    34    1
    35     9    35    1
    36    10    36    1
    37    10    37    1
    38    15    38    1
    39    16    39    1
    40    17    40    1
    41    19    41    1
    42    19    42    1
    43    19    43    1
    44    20    44    1
@<TRIPOS>MOLECULE
51027967
 50 52 0 0 0
SMALL
GASTEIGER

@<TRIPOS>ATOM
      1 C          -5.0069    3.4731    2.0092 C.3     1  UNL1       -0.0397
      2 C          -4.5978    2.1870    1.4076 C.ar    1  UNL1       -0.0487
      3 C          -5.2199    1.0405    1.8560 C.ar    1  UNL1       -0.0585
      4 C          -4.9190   -0.2146    1.3669 C.ar    1  UNL1       -0.0563
      5 C          -3.9505   -0.3040    0.3869 C.ar    1  UNL1       -0.0235
      6 C          -3.5742   -1.6175   -0.1851 C.3     1  UNL1       -0.0198
      7 C          -4.4706   -1.8569   -1.3811 C.3     1  UNL1       -0.0586
      8 C          -3.6959   -2.7229    0.8349 C.3     1  UNL1       -0.0586
      9 C          -3.3052    0.8174   -0.0883 C.ar    1  UNL1        0.0384
     10 N          -2.3085    0.7084   -1.1008 N.am    1  UNL1       -0.2689
     11 C          -0.9466    0.5181   -0.7128 C.2     1  UNL1        0.3081
     12 O          -0.6873    0.4543    0.5023 O.2     1  UNL1       -0.2522
     13 N           0.1183    0.3989   -1.6342 N.am    1  UNL1       -0.2692
     14 C           1.4617    0.2111   -1.2920 C.ar    1  UNL1        0.0348
     15 C           2.3041    1.2975   -1.0832 C.ar    1  UNL1       -0.0399
     16 C           3.6229    1.1374   -0.7477 C.ar    1  UNL1       -0.0523
     17 C           4.1544   -0.1218   -0.6070 C.ar    1  UNL1       -0.0178
     18 C           5.5591   -0.2663   -0.2492 C.ar    1  UNL1       -0.0179
     19 C           6.1746    0.6659    0.5481 C.ar    1  UNL1       -0.0540
     20 C           7.5048    0.5748    0.9155 C.ar    1  UNL1       -0.0612
     21 C           8.2549   -0.4926    0.4688 C.ar    1  UNL1       -0.0617
     22 C           7.6607   -1.4535   -0.3400 C.ar    1  UNL1       -0.0612
     23 C           6.3195   -1.3279   -0.6889 C.ar    1  UNL1       -0.0540
     24 C           3.3373   -1.2317   -0.8093 C.ar    1  UNL1       -0.0523
     25 C           2.0168   -1.0419   -1.1454 C.ar    1  UNL1       -0.0399
     26 C          -3.6390    2.0577    0.4314 C.ar    1  UNL1       -0.0372
     27 H          -6.0659    3.6972    1.8300 H       1  UNL1        0.0278
     28 H          -4.3644    4.3183    1.6968 H       1  UNL1        0.0278
     29 H          -4.8797    3.3746    3.1112 H       1  UNL1        0.0278
     30 H          -5.9963    1.0680    2.6351 H       1  UNL1        0.0620
     31 H          -5.4028   -1.1209    1.7135 H       1  UNL1        0.0621
     32 H          -2.5277   -1.5659   -0.5138 H       1  UNL1        0.0344
     33 H          -5.4753   -2.1870   -0.9873 H       1  UNL1        0.0235
     34 H          -4.6234   -0.9276   -1.9664 H       1  UNL1        0.0235
     35 H          -4.0894   -2.7028   -1.9742 H       1  UNL1        0.0235
     36 H          -4.7606   -3.0256    0.8767 H       1  UNL1        0.0235
     37 H          -3.1357   -3.5914    0.4369 H       1  UNL1        0.0235
     38 H          -3.3005   -2.3449    1.7839 H       1  UNL1        0.0235
     39 H          -2.5392    0.7624   -2.0991 H       1  UNL1        0.1564
     40 H          -0.1432    0.4593   -2.6624 H       1  UNL1        0.1564
     41 H           1.8507    2.2727   -1.2029 H       1  UNL1        0.0636
     42 H           4.2398    1.9922   -0.5951 H       1  UNL1        0.0624
     43 H           5.5849    1.4982    0.8952 H       1  UNL1        0.0624
     44 H           8.0004    1.3011    1.5418 H       1  UNL1        0.0618
     45 H           9.3130   -0.6108    0.7316 H       1  UNL1        0.0618
     46 H           8.2704   -2.2701   -0.6704 H       1  UNL1        0.0618
     47 H           5.8738   -2.0867   -1.3200 H       1  UNL1        0.0624
     48 H           3.7315   -2.2060   -0.7047 H       1  UNL1        0.0624
     49 H           1.4171   -1.9455   -1.2934 H       1  UNL1        0.0636
     50 H          -3.1452    2.9507    0.0731 H       1  UNL1        0.0639
@<TRIPOS>BOND
     1     1     2    1
     2     2     3   ar
     3     3     4   ar
     4     4     5   ar
     5     5     6    1
     6     6     7    1
     7     6     8    1
     8     5     9   ar
     9     9    10    1
    10    10    11   am
    11    11    12    2
    12    11    13   am
    13    13    14    1
    14    14    15   ar
    15    15    16   ar
    16    16    17   ar
    17    17    18    1
    18    18    19   ar
    19    19    20   ar
    20    20    21   ar
    21    21    22   ar
    22    22    23   ar
    23    17    24   ar
    24    24    25   ar
    25     9    26   ar
    26    26     2   ar
    27    25    14   ar
    28    23    18   ar
    29     1    27    1
    30     1    28    1
    31     1    29    1
    32     3    30    1
    33     4    31    1
    34     6    32    1
    35     7    33    1
    36     7    34    1
    37     7    35    1
    38     8    36    1
    39     8    37    1
    40     8    38    1
    41    10    39    1
    42    13    40    1
    43    15    41    1
    44    16    42    1
    45    19    43    1
    46    20    44    1
    47    21    45    1
    48    22    46    1
    49    23    47    1
    50    24    48    1
    51    25    49    1
    52    26    50    1
@<TRIPOS>MOLECULE
51324118
 67 70 0 0 0
SMALL
GASTEIGER

@<TRIPOS>ATOM
      1 C           4.6928    2.3566    3.5392 C.3     1  UNL1        0.0790
      2 O           5.3857    1.4374    2.7245 O.3     1  UNL1       -0.4915
      3 C           4.8868    1.2068    1.4486 C.ar    1  UNL1        0.1615
      4 C           3.7613    1.8321    0.9609 C.ar    1  UNL1       -0.0160
      5 C           3.2575    1.6029   -0.3196 C.ar    1  UNL1       -0.0548
      6 C           3.9045    0.7149   -1.1413 C.ar    1  UNL1       -0.0422
      7 C           3.4192    0.4227   -2.4916 C.3     1  UNL1       -0.0119
      8 C           2.5235   -0.7807   -2.5187 C.3     1  UNL1        0.0170
      9 N           1.3407   -0.6700   -1.7117 N.am    1  UNL1       -0.2989
     10 C           0.4208   -1.7452   -1.6575 C.2     1  UNL1        0.3030
     11 O           0.7271   -2.7524   -2.3425 O.2     1  UNL1       -0.2526
     12 N          -0.7861   -1.7401   -0.8921 N.am    1  UNL1       -0.2743
     13 C          -1.5123   -3.0050   -0.9879 C.3     1  UNL1        0.0210
     14 C          -2.2405   -3.2829    0.3263 C.3     1  UNL1       -0.0113
     15 C          -3.2162   -2.1570    0.5274 C.ar    1  UNL1       -0.0369
     16 C          -4.5090   -2.3865    0.9125 C.ar    1  UNL1       -0.0127
     17 C          -5.3543   -1.3069    1.0383 C.ar    1  UNL1        0.1618
     18 O          -6.6863   -1.4585    1.4264 O.3     1  UNL1       -0.4914
     19 C          -7.2133   -2.7197    1.7029 C.3     1  UNL1        0.0790
     20 C          -4.8603   -0.0392    0.7703 C.ar    1  UNL1        0.1618
     21 O          -5.7162    1.0723    0.8950 O.3     1  UNL1       -0.4914
     22 C          -5.2716    2.3722    0.6369 C.3     1  UNL1        0.0790
     23 C          -3.5681    0.1972    0.3853 C.ar    1  UNL1       -0.0108
     24 C          -2.7202   -0.9083    0.2622 C.ar    1  UNL1       -0.0157
     25 C          -1.3008   -0.7226   -0.1126 C.3     1  UNL1        0.0783
     26 C          -1.1635    0.6653   -0.5316 C.ar    1  UNL1       -0.0225
     27 C          -0.7540    1.5840    0.4122 C.ar    1  UNL1       -0.0551
     28 C          -0.6172    2.9297    0.0883 C.ar    1  UNL1       -0.0431
     29 C          -0.8816    3.3891   -1.1687 C.ar    1  UNL1        0.0410
     30 CL         -0.7077    5.0690   -1.5619 Cl      1  UNL1       -0.0835
     31 C          -1.2935    2.4750   -2.1244 C.ar    1  UNL1       -0.0431
     32 C          -1.4227    1.1515   -1.7862 C.ar    1  UNL1       -0.0551
     33 C           5.0384    0.0741   -0.6734 C.ar    1  UNL1       -0.0131
     34 C           5.5108    0.3178    0.5871 C.ar    1  UNL1        0.1617
     35 O           6.6478   -0.3214    1.0633 O.3     1  UNL1       -0.4914
     36 C           7.3198   -1.2374    0.2216 C.3     1  UNL1        0.0790
     37 H           4.6732    3.3452    3.0104 H       1  UNL1        0.0660
     38 H           5.1600    2.4918    4.5261 H       1  UNL1        0.0660
     39 H           3.6310    2.0425    3.6722 H       1  UNL1        0.0660
     40 H           3.2434    2.5372    1.6077 H       1  UNL1        0.0655
     41 H           2.3760    2.1343   -0.6394 H       1  UNL1        0.0621
     42 H           4.2534    0.2054   -3.2114 H       1  UNL1        0.0328
     43 H           2.8570    1.2890   -2.9006 H       1  UNL1        0.0328
     44 H           3.0813   -1.7055   -2.2308 H       1  UNL1        0.0466
     45 H           2.2791   -0.9503   -3.6040 H       1  UNL1        0.0466
     46 H           1.1725    0.1914   -1.1685 H       1  UNL1        0.1502
     47 H          -0.8696   -3.8587   -1.1938 H       1  UNL1        0.0468
     48 H          -2.3058   -2.9690   -1.7628 H       1  UNL1        0.0468
     49 H          -2.7837   -4.2138    0.2258 H       1  UNL1        0.0328
     50 H          -1.5101   -3.3600    1.1396 H       1  UNL1        0.0328
     51 H          -4.8429   -3.3934    1.1090 H       1  UNL1        0.0658
     52 H          -6.9882   -2.9787    2.7715 H       1  UNL1        0.0660
     53 H          -8.3316   -2.6229    1.6607 H       1  UNL1        0.0660
     54 H          -6.8771   -3.5228    1.0359 H       1  UNL1        0.0660
     55 H          -4.5626    2.6830    1.4338 H       1  UNL1        0.0660
     56 H          -6.1064    3.0936    0.6026 H       1  UNL1        0.0660
     57 H          -4.7289    2.3401   -0.3445 H       1  UNL1        0.0660
     58 H          -3.1538    1.1544    0.1705 H       1  UNL1        0.0659
     59 H          -0.7604   -0.8034    0.8897 H       1  UNL1        0.0601
     60 H          -0.5187    1.3277    1.4371 H       1  UNL1        0.0621
     61 H          -0.2945    3.6543    0.8318 H       1  UNL1        0.0632
     62 H          -1.5129    2.8054   -3.1362 H       1  UNL1        0.0632
     63 H          -1.7391    0.4482   -2.5193 H       1  UNL1        0.0621
     64 H           5.5347   -0.6208   -1.3333 H       1  UNL1        0.0658
     65 H           8.3243   -1.4253    0.6675 H       1  UNL1        0.0660
     66 H           7.4904   -0.7608   -0.7712 H       1  UNL1        0.0660
     67 H           6.7688   -2.1946    0.1165 H       1  UNL1        0.0660
@<TRIPOS>BOND
     1     1     2    1
     2     2     3    1
     3     3     4   ar
     4     4     5   ar
     5     5     6   ar
     6     6     7    1
     7     7     8    1
     8     8     9    1
     9     9    10   am
    10    10    11    2
    11    10    12   am
    12    12    13    1
    13    13    14    1
    14    14    15    1
    15    15    16   ar
    16    16    17   ar
    17    17    18    1
    18    18    19    1
    19    17    20   ar
    20    20    21    1
    21    21    22    1
    22    20    23   ar
    23    23    24   ar
    24    24    25    1
    25    25    26    1
    26    26    27   ar
    27    27    28   ar
    28    28    29   ar
    29    29    30    1
    30    29    31   ar
    31    31    32   ar
    32     6    33   ar
    33    33    34   ar
    34    34    35    1
    35    35    36    1
    36    34     3   ar
    37    25    12    1
    38    32    26   ar
    39    24    15   ar
    40     1    37    1
    41     1    38    1
    42     1    39    1
    43     4    40    1
    44     5    41    1
    45     7    42    1
    46     7    43    1
    47     8    44    1
    48     8    45    1
    49     9    46    1
    50    13    47    1
    51    13    48    1
    52    14    49    1
    53    14    50    1
    54    16    51    1
    55    19    52    1
    56    19    53    1
    57    19    54    1
    58    22    55    1
    59    22    56    1
    60    22    57    1
    61    23    58    1
    62    25    59    1
    63    27    60    1
    64    28    61    1
    65    31    62    1
    66    32    63    1
    67    33    64    1
    68    36    65    1
    69    36    66    1
    70    36    67    1
@<TRIPOS>MOLECULE
CHEMBL4446849
 36 37 0 0 0
SMALL
GASTEIGER

@<TRIPOS>ATOM
      1 O          -1.4721    0.1618   -1.3795 O.2     1  UNL1       -0.2705
      2 C          -1.0860    0.3518   -0.2203 C.2     1  UNL1        0.2411
      3 C           0.3605    0.2960    0.1105 C.2     1  UNL1        0.0010
      4 C           1.2212    0.0425   -0.8433 C.2     1  UNL1       -0.0497
      5 C           2.6414   -0.0228   -0.5732 C.ar    1  UNL1       -0.0249
      6 C           3.5095   -0.2979   -1.6379 C.ar    1  UNL1       -0.0541
      7 C           4.8575   -0.3632   -1.3984 C.ar    1  UNL1       -0.0496
      8 C           5.4286   -0.1732   -0.1584 C.ar    1  UNL1        0.0548
      9 C           6.9018   -0.2675   -0.0167 C.3     1  UNL1        0.4174
     10 F           7.3628    0.5283    0.9913 F       1  UNL1       -0.1659
     11 F           7.4566    0.1726   -1.2108 F       1  UNL1       -0.1659
     12 F           7.2502   -1.5853    0.2385 F       1  UNL1       -0.1659
     13 C           4.5758    0.0945    0.8738 C.ar    1  UNL1       -0.0496
     14 C           3.1958    0.1662    0.6540 C.ar    1  UNL1       -0.0541
     15 N          -2.0484    0.6246    0.7907 N.am    1  UNL1       -0.2812
     16 C          -3.4416    0.6793    0.4769 C.ar    1  UNL1        0.0477
     17 C          -4.0612    1.8529    0.0968 C.ar    1  UNL1       -0.0397
     18 C          -5.3916    1.9538   -0.2129 C.ar    1  UNL1       -0.0600
     19 C          -6.1791    0.8162   -0.1455 C.ar    1  UNL1       -0.0609
     20 C          -5.5850   -0.3723    0.2322 C.ar    1  UNL1       -0.0460
     21 C          -4.2366   -0.4477    0.5405 C.ar    1  UNL1        0.0800
     22 C          -3.6508   -1.7169    0.9333 C.2     1  UNL1        0.3386
     23 O          -2.4391   -1.8059    1.2148 O.2     1  UNL1       -0.2451
     24 O          -4.4243   -2.8666    1.0063 O.3     1  UNL1       -0.4771
     25 H           0.7005    0.4596    1.1120 H       1  UNL1        0.0670
     26 H           0.8812   -0.1284   -1.8833 H       1  UNL1        0.0625
     27 H           3.0988   -0.4573   -2.6483 H       1  UNL1        0.0624
     28 H           5.5458   -0.5795   -2.2328 H       1  UNL1        0.0623
     29 H           4.9734    0.2490    1.8528 H       1  UNL1        0.0623
     30 H           2.5992    0.3806    1.5180 H       1  UNL1        0.0624
     31 H          -1.6919    0.7814    1.7640 H       1  UNL1        0.1551
     32 H          -3.4536    2.7437    0.0420 H       1  UNL1        0.0636
     33 H          -5.8818    2.8712   -0.5114 H       1  UNL1        0.0618
     34 H          -7.2295    0.8871   -0.3882 H       1  UNL1        0.0618
     35 H          -6.2412   -1.2465    0.2729 H       1  UNL1        0.0626
     36 H          -4.0468   -3.7825    0.7389 H       1  UNL1        0.2954
@<TRIPOS>BOND
     1     1     2    2
     2     2     3    1
     3     3     4    2
     4     4     5    1
     5     5     6   ar
     6     6     7   ar
     7     7     8   ar
     8     8     9    1
     9     9    10    1
    10     9    11    1
    11     9    12    1
    12     8    13   ar
    13    13    14   ar
    14     2    15   am
    15    15    16    1
    16    16    17   ar
    17    17    18   ar
    18    18    19   ar
    19    19    20   ar
    20    20    21   ar
    21    21    22    1
    22    22    23    2
    23    22    24    1
    24    14     5   ar
    25    21    16   ar
    26     3    25    1
    27     4    26    1
    28     6    27    1
    29     7    28    1
    30    13    29    1
    31    14    30    1
    32    15    31    1
    33    17    32    1
    34    18    33    1
    35    19    34    1
    36    20    35    1
    37    24    36    1
@<TRIPOS>MOLECULE
50333161
 36 38 0 0 0
SMALL
GASTEIGER

@<TRIPOS>ATOM
      1 C          -5.9374   -2.1169    0.5044 C.3     1  UNL1        0.0788
      2 O          -4.6525   -1.8435    0.0332 O.3     1  UNL1       -0.4950
      3 C          -3.9885   -0.6516    0.1968 C.ar    1  UNL1        0.1221
      4 C          -4.5564    0.4161    0.8655 C.ar    1  UNL1       -0.0198
      5 C          -3.8352    1.5847    0.9942 C.ar    1  UNL1       -0.0563
      6 C          -2.5615    1.7075    0.4697 C.ar    1  UNL1       -0.0375
      7 C          -1.9904    0.6657   -0.1904 C.ar    1  UNL1        0.0544
      8 N          -0.6839    0.7397   -0.7485 N.ar    1  UNL1       -0.2675
      9 C           0.4361    0.3534   -0.0809 C.ar    1  UNL1        0.0386
     10 C           1.5395    0.5431   -0.8765 C.ar    1  UNL1        0.0674
     11 C           2.9337    0.2635   -0.5582 C.ar    1  UNL1        0.0062
     12 C           3.9424    0.5099   -1.4717 C.ar    1  UNL1       -0.0522
     13 C           5.2706    0.2555   -1.1988 C.ar    1  UNL1       -0.0547
     14 C           5.6351   -0.2725    0.0443 C.ar    1  UNL1        0.0156
     15 C           4.6522   -0.5265    0.9700 C.ar    1  UNL1        0.2738
     16 N           5.0136   -1.0596    2.2270 N.pl3   1  UNL1        0.0796
     17 O           4.1759   -1.3154    3.1163 O.2     1  UNL1        0.0414
     18 O           6.3358   -1.3064    2.4821 O.co2   1  UNL1       -0.5760
     19 C           3.3249   -0.2569    0.6581 C.ar    1  UNL1        0.0247
     20 N           1.0688    1.0466   -2.0267 N.ar    1  UNL1       -0.3057
     21 C          -0.2835    1.1672   -1.9516 C.ar    1  UNL1        0.3316
     22 O          -1.0673    1.6044   -2.8442 O.2     1  UNL1       -0.2462
     23 C          -2.7208   -0.5068   -0.3165 C.ar    1  UNL1        0.0040
     24 H          -6.3650   -2.9239   -0.1406 H       1  UNL1        0.0660
     25 H          -6.6317   -1.2536    0.4463 H       1  UNL1        0.0660
     26 H          -5.9635   -2.5234    1.5384 H       1  UNL1        0.0660
     27 H          -5.5528    0.2753    1.2585 H       1  UNL1        0.0654
     28 H          -4.3014    2.4097    1.5232 H       1  UNL1        0.0619
     29 H          -2.0462    2.6453    0.6015 H       1  UNL1        0.0638
     30 H           0.4962   -0.0489    0.9274 H       1  UNL1        0.0835
     31 H           3.7031    0.9153   -2.4376 H       1  UNL1        0.0624
     32 H           6.0645    0.4450   -1.9066 H       1  UNL1        0.0620
     33 H           6.6872   -0.4612    0.2277 H       1  UNL1        0.0685
     34 H           2.5406   -0.4506    1.3737 H       1  UNL1        0.0692
     35 H           1.6061    1.3190   -2.8728 H       1  UNL1        0.1705
     36 H          -2.2882   -1.3492   -0.8372 H       1  UNL1        0.0675
@<TRIPOS>UNITY_ATOM_ATTR
16 1
charge 1
18 1
charge -1
@<TRIPOS>BOND
     1     1     2    1
     2     2     3    1
     3     3     4   ar
     4     4     5   ar
     5     5     6   ar
     6     6     7   ar
     7     7     8    1
     8     8     9   ar
     9     9    10   ar
    10    10    11    1
    11    11    12   ar
    12    12    13   ar
    13    13    14   ar
    14    14    15   ar
    15    15    16    1
    16    16    17    2
    17    16    18    1
    18    15    19   ar
    19    10    20   ar
    20    20    21   ar
    21    21    22    2
    22     7    23   ar
    23    23     3   ar
    24    21     8   ar
    25    19    11   ar
    26     1    24    1
    27     1    25    1
    28     1    26    1
    29     4    27    1
    30     5    28    1
    31     6    29    1
    32     9    30    1
    33    12    31    1
    34    13    32    1
    35    14    33    1
    36    19    34    1
    37    20    35    1
    38    23    36    1
@<TRIPOS>MOLECULE
51324131
 67 71 0 0 0
SMALL
GASTEIGER

@<TRIPOS>ATOM
      1 C           8.4854   -1.8069    2.1506 C.3     1  UNL1        0.0790
      2 O           8.1680   -0.8470    1.1623 O.3     1  UNL1       -0.4915
      3 C           6.8677   -0.8228    0.6783 C.ar    1  UNL1        0.1615
      4 C           5.8985   -1.6942    1.1274 C.ar    1  UNL1       -0.0157
      5 C           4.6059   -1.6721    0.6486 C.ar    1  UNL1       -0.0508
      6 C           4.2149   -0.7569   -0.3220 C.ar    1  UNL1       -0.0194
      7 C           2.8566   -0.6660   -0.8408 C.2     1  UNL1       -0.0281
      8 CA          1.8249   -0.5231   -0.0309 C.2     1  UNL1        0.0967
      9 N           1.9474   -0.4421    1.3580 N.am    1  UNL1       -0.2798
     10 C           0.7746   -0.3163    2.1565 C.2     1  UNL1        0.2382
     11 O           0.8774   -0.4708    3.3900 O.2     1  UNL1       -0.2734
     12 CA         -0.5589   -0.0117    1.5994 C.3     1  UNL1        0.1077
     13 C          -1.6544   -0.7541    2.3815 C.3     1  UNL1        0.0000
     14 C          -2.9238   -0.1780    1.8694 C.ar    1  UNL1       -0.0362
     15 C          -3.9114    0.2476    2.7273 C.ar    1  UNL1       -0.0127
     16 C          -5.0819    0.7793    2.1855 C.ar    1  UNL1        0.1618
     17 O          -6.0675    1.2052    3.0317 O.3     1  UNL1       -0.4914
     18 C          -6.0051    1.1554    4.4357 C.3     1  UNL1        0.0790
     19 C          -5.2711    0.8874    0.8250 C.ar    1  UNL1        0.1618
     20 O          -6.4556    1.4225    0.3835 O.3     1  UNL1       -0.4914
     21 C          -6.8829    1.6345   -0.9163 C.3     1  UNL1        0.0790
     22 C          -4.2775    0.4594   -0.0337 C.ar    1  UNL1       -0.0108
     23 C          -3.1038   -0.0735    0.5138 C.ar    1  UNL1       -0.0157
     24 C          -1.9867   -0.5515   -0.3502 C.3     1  UNL1        0.0782
     25 C          -2.1419   -0.0691   -1.7424 C.ar    1  UNL1       -0.0162
     26 C          -1.7256    1.1718   -2.1781 C.ar    1  UNL1       -0.0561
     27 C          -1.9068    1.5608   -3.4972 C.ar    1  UNL1       -0.0550
     28 C          -2.5105    0.7081   -4.4032 C.ar    1  UNL1        0.0156
     29 C          -2.9354   -0.5369   -3.9932 C.ar    1  UNL1        0.2735
     30 N          -3.5617   -1.4138   -4.9391 N.pl3   1  UNL1        0.0796
     31 O          -3.7119   -1.0501   -6.1081 O.2     1  UNL1        0.0414
     32 O          -4.0059   -2.6602   -4.5839 O.co2   1  UNL1       -0.5760
     33 C          -2.7414   -0.8858   -2.6909 C.ar    1  UNL1        0.0208
     34 N          -0.6870   -0.3412    0.2165 N.am    1  UNL1       -0.2735
     35 C           0.4559   -0.4694   -0.6029 C.2     1  UNL1        0.2622
     36 O           0.3869   -0.5470   -1.8741 O.2     1  UNL1       -0.2686
     37 C           5.2004    0.1233   -0.7742 C.ar    1  UNL1       -0.0091
     38 C           6.4842    0.0993   -0.2971 C.ar    1  UNL1        0.1620
     39 O           7.4849    0.9627   -0.7270 O.3     1  UNL1       -0.4914
     40 C           7.3023    1.9675   -1.7010 C.3     1  UNL1        0.0790
     41 H           8.2108   -2.7988    1.7091 H       1  UNL1        0.0660
     42 H           9.5208   -1.7606    2.4905 H       1  UNL1        0.0660
     43 H           7.7915   -1.6318    3.0175 H       1  UNL1        0.0660
     44 H           6.1949   -2.4206    1.8937 H       1  UNL1        0.0655
     45 H           3.9068   -2.3940    1.0367 H       1  UNL1        0.0625
     46 H           2.7067   -0.7189   -1.9367 H       1  UNL1        0.0644
     47 H           2.8938   -0.4574    1.7977 H       1  UNL1        0.1550
     48 HA         -0.7539    1.0670    1.7334 H       1  UNL1        0.0600
     49 H          -1.5990   -1.7991    2.0286 H       1  UNL1        0.0336
     50 H          -1.5329   -0.6308    3.4658 H       1  UNL1        0.0336
     51 H          -3.7401    0.1535    3.7785 H       1  UNL1        0.0658
     52 H          -6.0610    0.1333    4.8517 H       1  UNL1        0.0660
     53 H          -6.8458    1.7658    4.8351 H       1  UNL1        0.0660
     54 H          -5.0339    1.5874    4.7501 H       1  UNL1        0.0660
     55 H          -7.0139    2.7518   -1.0368 H       1  UNL1        0.0660
     56 H          -6.1922    1.2246   -1.6495 H       1  UNL1        0.0660
     57 H          -7.9119    1.2126   -1.0102 H       1  UNL1        0.0660
     58 H          -4.3796    0.5231   -1.0912 H       1  UNL1        0.0659
     59 H          -2.1181   -1.6751   -0.3705 H       1  UNL1        0.0601
     60 H          -1.2497    1.8450   -1.4655 H       1  UNL1        0.0621
     61 H          -1.5914    2.5199   -3.8567 H       1  UNL1        0.0620
     62 H          -2.6650    0.9926   -5.4509 H       1  UNL1        0.0685
     63 H          -3.0845   -1.8777   -2.3842 H       1  UNL1        0.0689
     64 H           4.9486    0.8415   -1.5176 H       1  UNL1        0.0661
     65 H           6.9452    2.9091   -1.2231 H       1  UNL1        0.0660
     66 H           6.6178    1.6374   -2.4915 H       1  UNL1        0.0660
     67 H           8.3083    2.1758   -2.1386 H       1  UNL1        0.0660
@<TRIPOS>UNITY_ATOM_ATTR
30 1
charge 1
32 1
charge -1
@<TRIPOS>BOND
     1     1     2    1
     2     2     3    1
     3     3     4   ar
     4     4     5   ar
     5     5     6   ar
     6     6     7    1
     7     7     8    2
     8     8     9    1
     9     9    10   am
    10    10    11    2
    11    10    12    1
    12    12    13    1
    13    13    14    1
    14    14    15   ar
    15    15    16   ar
    16    16    17    1
    17    17    18    1
    18    16    19   ar
    19    19    20    1
    20    20    21    1
    21    19    22   ar
    22    22    23   ar
    23    23    24    1
    24    24    25    1
    25    25    26   ar
    26    26    27   ar
    27    27    28   ar
    28    28    29   ar
    29    29    30    1
    30    30    31    2
    31    30    32    1
    32    29    33   ar
    33    24    34    1
    34    34    35   am
    35    35    36    2
    36     6    37   ar
    37    37    38   ar
    38    38    39    1
    39    39    40    1
    40    38     3   ar
    41    35     8    1
    42    34    12    1
    43    23    14   ar
    44    33    25   ar
    45     1    41    1
    46     1    42    1
    47     1    43    1
    48     4    44    1
    49     5    45    1
    50     7    46    1
    51     9    47    1
    52    12    48    1
    53    13    49    1
    54    13    50    1
    55    15    51    1
    56    18    52    1
    57    18    53    1
    58    18    54    1
    59    21    55    1
    60    21    56    1
    61    21    57    1
    62    22    58    1
    63    24    59    1
    64    26    60    1
    65    27    61    1
    66    28    62    1
    67    33    63    1
    68    37    64    1
    69    40    65    1
    70    40    66    1
    71    40    67    1
@<TRIPOS>MOLECULE
50543028
 50 52 0 0 0
SMALL
GASTEIGER

@<TRIPOS>ATOM
      1 C           6.2402   -1.2641    2.1278 C.3     1  UNL1        0.0788
      2 O           5.4340   -0.4783    1.2722 O.3     1  UNL1       -0.4951
      3 C           4.2656   -1.0532    0.7340 C.ar    1  UNL1        0.1204
      4 C           3.9233   -2.3533    1.0389 C.ar    1  UNL1       -0.0199
      5 C           2.7823   -2.9325    0.5209 C.ar    1  UNL1       -0.0580
      6 C           1.9998   -2.1669   -0.3096 C.ar    1  UNL1       -0.0568
      7 C           2.2877   -0.8571   -0.6544 C.ar    1  UNL1       -0.0266
      8 C           1.3984   -0.1377   -1.5343 C.3     1  UNL1        0.0409
      9 N           0.4325    0.7614   -1.0775 N.am    1  UNL1       -0.2809
     10 C           0.7836    2.1604   -0.8549 C.2     1  UNL1        0.2541
     11 O           1.9114    2.6196   -1.0532 O.2     1  UNL1       -0.2694
     12 C          -0.2357    3.0867   -0.3733 C.ar    1  UNL1        0.0741
     13 C          -1.1860    3.7877   -0.9870 C.ar    1  UNL1       -0.0425
     14 C          -2.0137    4.5846   -0.3003 C.ar    1  UNL1       -0.0540
     15 C          -1.8889    4.6869    1.0546 C.ar    1  UNL1       -0.0236
     16 S          -0.4660    3.5404    1.3358 S.2     1  UNL1       -0.0921
     17 C          -0.9436    0.4332   -0.8640 C.3     1  UNL1        0.1066
     18 C          -1.1252   -0.4067    0.3849 C.3     1  UNL1       -0.0004
     19 C          -2.5372   -0.7621    0.6527 C.ar    1  UNL1       -0.0451
     20 C          -3.3173    0.1179    1.3682 C.ar    1  UNL1       -0.0585
     21 C          -4.6432   -0.2460    1.6279 C.ar    1  UNL1       -0.0615
     22 C          -5.1594   -1.4239    1.1961 C.ar    1  UNL1       -0.0617
     23 C          -4.3644   -2.2996    0.4777 C.ar    1  UNL1       -0.0615
     24 C          -3.0649   -1.9515    0.2185 C.ar    1  UNL1       -0.0585
     25 C          -1.6409   -0.0996   -2.0531 C.2     1  UNL1        0.2314
     26 N          -1.0455   -0.3061   -3.3262 N.am    1  UNL1       -0.3278
     27 O          -2.8802   -0.4211   -2.0035 O.2     1  UNL1       -0.2740
     28 C           3.4454   -0.3316   -0.1034 C.ar    1  UNL1       -0.0153
     29 H           5.6234   -1.7071    2.9329 H       1  UNL1        0.0660
     30 H           6.6351   -2.1136    1.5176 H       1  UNL1        0.0660
     31 H           7.0746   -0.6579    2.5661 H       1  UNL1        0.0660
     32 H           4.5674   -2.9301    1.7007 H       1  UNL1        0.0654
     33 H           2.5409   -3.9612    0.7816 H       1  UNL1        0.0619
     34 H           1.1001   -2.6694   -0.7084 H       1  UNL1        0.0621
     35 H           2.0699    0.4200   -2.2744 H       1  UNL1        0.0514
     36 H           0.8772   -0.9329   -2.1628 H       1  UNL1        0.0514
     37 H          -1.2934    3.7064   -2.1111 H       1  UNL1        0.0630
     38 H          -2.8385    5.2008   -0.7759 H       1  UNL1        0.0623
     39 H          -2.3771    5.2119    1.8149 H       1  UNL1        0.0693
     40 H          -1.5430    1.3738   -0.6005 H       1  UNL1        0.0600
     41 H          -0.7806    0.1852    1.2859 H       1  UNL1        0.0336
     42 H          -0.4909   -1.3060    0.4009 H       1  UNL1        0.0336
     43 H          -2.9504    1.0630    1.7303 H       1  UNL1        0.0620
     44 H          -5.2490    0.4577    2.1940 H       1  UNL1        0.0618
     45 H          -6.2029   -1.7009    1.4051 H       1  UNL1        0.0618
     46 H          -4.7603   -3.2406    0.1276 H       1  UNL1        0.0618
     47 H          -2.4452   -2.6237   -0.3358 H       1  UNL1        0.0620
     48 H          -0.9035   -1.2562   -3.7366 H       1  UNL1        0.1450
     49 H          -0.7265    0.5061   -3.8985 H       1  UNL1        0.1450
     50 H           3.6805    0.6869   -0.3688 H       1  UNL1        0.0657
@<TRIPOS>BOND
     1     1     2    1
     2     2     3    1
     3     3     4   ar
     4     4     5   ar
     5     5     6   ar
     6     6     7   ar
     7     7     8    1
     8     8     9    1
     9     9    10   am
    10    10    11    2
    11    10    12    1
    12    12    13   ar
    13    13    14   ar
    14    14    15   ar
    15    15    16   ar
    16     9    17    1
    17    17    18    1
    18    18    19    1
    19    19    20   ar
    20    20    21   ar
    21    21    22   ar
    22    22    23   ar
    23    23    24   ar
    24    17    25    1
    25    25    26   am
    26    25    27    2
    27     7    28   ar
    28    28     3   ar
    29    16    12   ar
    30    24    19   ar
    31     1    29    1
    32     1    30    1
    33     1    31    1
    34     4    32    1
    35     5    33    1
    36     6    34    1
    37     8    35    1
    38     8    36    1
    39    13    37    1
    40    14    38    1
    41    15    39    1
    42    17    40    1
    43    18    41    1
    44    18    42    1
    45    20    43    1
    46    21    44    1
    47    22    45    1
    48    23    46    1
    49    24    47    1
    50    26    48    1
    51    26    49    1
    52    28    50    1
@<TRIPOS>MOLECULE
51324122
 65 69 0 0 0
SMALL
GASTEIGER

@<TRIPOS>ATOM
      1 C           8.2787    2.8331   -0.4984 C.3     1  UNL1        0.0790
      2 O           7.9904    1.4734   -0.2188 O.3     1  UNL1       -0.4915
      3 C           6.6847    1.0560   -0.3786 C.ar    1  UNL1        0.1615
      4 C           5.6638    1.8781   -0.7893 C.ar    1  UNL1       -0.0157
      5 C           4.3669    1.4244   -0.9381 C.ar    1  UNL1       -0.0508
      6 C           4.0397    0.1170   -0.6776 C.ar    1  UNL1       -0.0194
      7 C           2.7210   -0.4586   -0.7716 C.2     1  UNL1       -0.0281
      8 CA          1.6875    0.0722   -0.1706 C.2     1  UNL1        0.0967
      9 N           1.7743    1.2449    0.6228 N.am    1  UNL1       -0.2798
     10 C           0.5941    1.7642    1.2148 C.2     1  UNL1        0.2382
     11 O           0.6802    2.5001    2.2517 O.2     1  UNL1       -0.2734
     12 CA         -0.7243    1.4371    0.6099 C.3     1  UNL1        0.1077
     13 C          -1.8332    1.9007    1.5049 C.3     1  UNL1        0.0000
     14 C          -3.1322    1.3542    1.0526 C.ar    1  UNL1       -0.0362
     15 C          -4.2874    2.1259    1.0713 C.ar    1  UNL1       -0.0127
     16 C          -5.4801    1.5881    0.6464 C.ar    1  UNL1        0.1618
     17 O          -6.6328    2.3627    0.6661 O.3     1  UNL1       -0.4914
     18 C          -6.5690    3.6861    1.1189 C.3     1  UNL1        0.0790
     19 C          -5.4893    0.2741    0.2072 C.ar    1  UNL1        0.1618
     20 O          -6.6858   -0.2443   -0.2121 O.3     1  UNL1       -0.4914
     21 C          -6.7961   -1.5956   -0.6847 C.3     1  UNL1        0.0790
     22 C          -4.3685   -0.5147    0.1756 C.ar    1  UNL1       -0.0108
     23 C          -3.1694    0.0516    0.6111 C.ar    1  UNL1       -0.0156
     24 C          -1.9454   -0.7418    0.6054 C.3     1  UNL1        0.0793
     25 C          -2.0563   -1.9706   -0.2243 C.ar    1  UNL1       -0.0043
     26 C          -2.3972   -1.9127   -1.5790 C.ar    1  UNL1       -0.0551
     27 C          -2.4973   -3.0530   -2.3395 C.ar    1  UNL1       -0.0613
     28 C          -2.2611   -4.2903   -1.7755 C.ar    1  UNL1       -0.0604
     29 C          -1.9244   -4.3869   -0.4490 C.ar    1  UNL1       -0.0431
     30 C          -1.8308   -3.2284    0.2909 C.ar    1  UNL1        0.0462
     31 CL         -1.3971   -3.3825    1.9893 Cl      1  UNL1       -0.0832
     32 N          -0.7968    0.0344    0.2982 N.am    1  UNL1       -0.2735
     33 C           0.3531   -0.5512   -0.3350 C.2     1  UNL1        0.2622
     34 O           0.2613   -1.5884   -1.0318 O.2     1  UNL1       -0.2686
     35 C           5.0746   -0.7275   -0.2592 C.ar    1  UNL1       -0.0091
     36 C           6.3566   -0.2766   -0.1132 C.ar    1  UNL1        0.1620
     37 O           7.3455   -1.1630    0.3066 O.3     1  UNL1       -0.4914
     38 C           7.0195   -2.5012    0.5733 C.3     1  UNL1        0.0790
     39 H           7.8650    3.1019   -1.4895 H       1  UNL1        0.0660
     40 H           9.3806    2.9362   -0.4646 H       1  UNL1        0.0660
     41 H           7.8245    3.4268    0.3207 H       1  UNL1        0.0660
     42 H           5.8693    2.9040   -1.0035 H       1  UNL1        0.0655
     43 H           3.5908    2.1121   -1.2873 H       1  UNL1        0.0625
     44 H           2.5368   -1.3767   -1.3599 H       1  UNL1        0.0644
     45 H           2.7087    1.7169    0.7880 H       1  UNL1        0.1550
     46 HA         -0.7748    2.0631   -0.3296 H       1  UNL1        0.0600
     47 H          -1.6259    1.5237    2.5275 H       1  UNL1        0.0336
     48 H          -1.8305    3.0170    1.4940 H       1  UNL1        0.0336
     49 H          -4.1982    3.1574    1.4330 H       1  UNL1        0.0658
     50 H          -5.7355    4.1920    0.5732 H       1  UNL1        0.0660
     51 H          -7.4862    4.2631    0.9273 H       1  UNL1        0.0660
     52 H          -6.3485    3.7388    2.2022 H       1  UNL1        0.0660
     53 H          -6.1077   -1.7722   -1.5316 H       1  UNL1        0.0660
     54 H          -7.8341   -1.8356   -0.9575 H       1  UNL1        0.0660
     55 H          -6.5093   -2.2490    0.1727 H       1  UNL1        0.0660
     56 H          -4.3285   -1.5367   -0.1525 H       1  UNL1        0.0659
     57 H          -1.8059   -1.1097    1.6626 H       1  UNL1        0.0602
     58 H          -2.5790   -0.9439   -2.0042 H       1  UNL1        0.0621
     59 H          -2.7635   -3.0063   -3.3970 H       1  UNL1        0.0618
     60 H          -2.3419   -5.1866   -2.3793 H       1  UNL1        0.0618
     61 H          -1.7356   -5.3526    0.0139 H       1  UNL1        0.0632
     62 H           4.8561   -1.7640   -0.0464 H       1  UNL1        0.0661
     63 H           7.9069   -3.0191    0.9991 H       1  UNL1        0.0660
     64 H           6.6796   -2.9888   -0.3640 H       1  UNL1        0.0660
     65 H           6.1694   -2.6025    1.2844 H       1  UNL1        0.0660
@<TRIPOS>BOND
     1     1     2    1
     2     2     3    1
     3     3     4   ar
     4     4     5   ar
     5     5     6   ar
     6     6     7    1
     7     7     8    2
     8     8     9    1
     9     9    10   am
    10    10    11    2
    11    10    12    1
    12    12    13    1
    13    13    14    1
    14    14    15   ar
    15    15    16   ar
    16    16    17    1
    17    17    18    1
    18    16    19   ar
    19    19    20    1
    20    20    21    1
    21    19    22   ar
    22    22    23   ar
    23    23    24    1
    24    24    25    1
    25    25    26   ar
    26    26    27   ar
    27    27    28   ar
    28    28    29   ar
    29    29    30   ar
    30    30    31    1
    31    24    32    1
    32    32    33   am
    33    33    34    2
    34     6    35   ar
    35    35    36   ar
    36    36    37    1
    37    37    38    1
    38    36     3   ar
    39    33     8    1
    40    32    12    1
    41    23    14   ar
    42    30    25   ar
    43     1    39    1
    44     1    40    1
    45     1    41    1
    46     4    42    1
    47     5    43    1
    48     7    44    1
    49     9    45    1
    50    12    46    1
    51    13    47    1
    52    13    48    1
    53    15    49    1
    54    18    50    1
    55    18    51    1
    56    18    52    1
    57    21    53    1
    58    21    54    1
    59    21    55    1
    60    22    56    1
    61    24    57    1
    62    26    58    1
    63    27    59    1
    64    28    60    1
    65    29    61    1
    66    35    62    1
    67    38    63    1
    68    38    64    1
    69    38    65    1
@<TRIPOS>MOLECULE
50333137
 39 41 0 0 0
SMALL
GASTEIGER

@<TRIPOS>ATOM
      1 C          -7.3258    0.0024   -0.5201 C.3     1  UNL1        0.0788
      2 O          -6.4916   -0.8617    0.2283 O.3     1  UNL1       -0.4951
      3 C          -5.1048   -0.6953    0.2168 C.ar    1  UNL1        0.1202
      4 C          -4.2689   -1.5213    0.9358 C.ar    1  UNL1       -0.0182
      5 C          -2.8991   -1.3538    0.9219 C.ar    1  UNL1       -0.0368
      6 C          -2.3024   -0.3494    0.1860 C.ar    1  UNL1        0.0383
      7 N          -0.8725   -0.1732    0.1704 N.am    1  UNL1       -0.2515
      8 C          -0.2764    0.6860    1.1523 C.3     1  UNL1        0.0414
      9 C           1.1695    0.8225    1.0841 C.2     1  UNL1       -0.0445
     10 C           1.9195    0.2251    0.2081 C.2     1  UNL1        0.0397
     11 C           3.3807    0.4211    0.2121 C.ar    1  UNL1        0.0024
     12 C           4.0178    1.2249    1.1175 C.ar    1  UNL1       -0.0524
     13 C           5.4087    1.3984    1.1048 C.ar    1  UNL1       -0.0547
     14 C           6.1441    0.7425    0.1577 C.ar    1  UNL1        0.0156
     15 C           5.5639   -0.0709   -0.7692 C.ar    1  UNL1        0.2738
     16 N           6.2934   -0.7632   -1.7611 N.pl3   1  UNL1        0.0796
     17 O           5.7139   -1.4880   -2.5768 O.2     1  UNL1        0.0414
     18 O           7.6473   -0.6324   -1.8214 O.co2   1  UNL1       -0.5760
     19 C           4.1749   -0.2169   -0.7223 C.ar    1  UNL1        0.0245
     20 N           1.3409   -0.6250   -0.7654 N.am    1  UNL1       -0.2687
     21 C          -0.0875   -0.8379   -0.7961 C.2     1  UNL1        0.3110
     22 O          -0.6400   -1.5797   -1.6377 O.2     1  UNL1       -0.2519
     23 C          -3.1442    0.4747   -0.5320 C.ar    1  UNL1       -0.0368
     24 C          -4.5178    0.3106   -0.5211 C.ar    1  UNL1       -0.0182
     25 H          -7.1117   -0.1047   -1.6011 H       1  UNL1        0.0660
     26 H          -7.0295    1.0568   -0.2455 H       1  UNL1        0.0660
     27 H          -8.3793   -0.0875   -0.2625 H       1  UNL1        0.0660
     28 H          -4.6820   -2.3246    1.5298 H       1  UNL1        0.0655
     29 H          -2.2199   -2.0006    1.4870 H       1  UNL1        0.0637
     30 H          -0.7851    1.6954    1.1517 H       1  UNL1        0.0513
     31 H          -0.5608    0.2367    2.1563 H       1  UNL1        0.0513
     32 H           1.6199    1.4904    1.8495 H       1  UNL1        0.0606
     33 H           3.4710    1.7563    1.8767 H       1  UNL1        0.0624
     34 H           5.8946    2.0506    1.8447 H       1  UNL1        0.0620
     35 H           7.2327    0.8460    0.1072 H       1  UNL1        0.0685
     36 H           3.7314   -0.8508   -1.4462 H       1  UNL1        0.0692
     37 H           1.8510   -1.1459   -1.5053 H       1  UNL1        0.1564
     38 H          -2.6992    1.2765   -1.1221 H       1  UNL1        0.0637
     39 H          -5.1768    0.9659   -1.0912 H       1  UNL1        0.0655
@<TRIPOS>UNITY_ATOM_ATTR
16 1
charge 1
18 1
charge -1
@<TRIPOS>BOND
     1     1     2    1
     2     2     3    1
     3     3     4   ar
     4     4     5   ar
     5     5     6   ar
     6     6     7    1
     7     7     8    1
     8     8     9    1
     9     9    10    2
    10    10    11    1
    11    11    12   ar
    12    12    13   ar
    13    13    14   ar
    14    14    15   ar
    15    15    16    1
    16    16    17    2
    17    16    18    1
    18    15    19   ar
    19    10    20    1
    20    20    21   am
    21    21    22    2
    22     6    23   ar
    23    23    24   ar
    24    24     3   ar
    25    21     7   am
    26    19    11   ar
    27     1    25    1
    28     1    26    1
    29     1    27    1
    30     4    28    1
    31     5    29    1
    32     8    30    1
    33     8    31    1
    34     9    32    1
    35    12    33    1
    36    13    34    1
    37    14    35    1
    38    19    36    1
    39    20    37    1
    40    23    38    1
    41    24    39    1
@<TRIPOS>MOLECULE
CHEMBL4446136
 37 38 0 0 0
SMALL
GASTEIGER

@<TRIPOS>ATOM
      1 C           3.8861   -2.4858   -0.9660 C.3     1  UNL1        0.0788
      2 O           3.0338   -1.4181   -0.5954 O.3     1  UNL1       -0.4945
      3 C           3.5208   -0.2739   -0.0262 C.ar    1  UNL1        0.1272
      4 C           4.8598   -0.1198    0.2068 C.ar    1  UNL1       -0.0194
      5 C           5.3516    1.0547    0.7900 C.ar    1  UNL1       -0.0583
      6 C           4.4927    2.0663    1.1349 C.ar    1  UNL1       -0.0610
      7 C           3.1432    1.9075    0.8985 C.ar    1  UNL1       -0.0511
      8 C           2.6657    0.7515    0.3252 C.ar    1  UNL1        0.0168
      9 C           1.2607    0.5531    0.0643 C.2     1  UNL1       -0.0462
     10 C           0.3422    1.4449    0.3486 C.2     1  UNL1        0.0011
     11 C          -1.0817    1.2417    0.0832 C.2     1  UNL1        0.2411
     12 O          -1.8685    2.1701    0.3999 O.2     1  UNL1       -0.2705
     13 N          -1.6382    0.0832   -0.5010 N.am    1  UNL1       -0.2812
     14 C          -3.0617   -0.0297   -0.7261 C.ar    1  UNL1        0.0477
     15 C          -3.6259    0.3938   -1.9113 C.ar    1  UNL1       -0.0397
     16 C          -4.9898    0.2759   -2.1043 C.ar    1  UNL1       -0.0600
     17 C          -5.7445   -0.2718   -1.0817 C.ar    1  UNL1       -0.0609
     18 C          -5.1687   -0.6926    0.1012 C.ar    1  UNL1       -0.0460
     19 C          -3.8093   -0.5762    0.2961 C.ar    1  UNL1        0.0800
     20 C          -3.1755   -1.0210    1.5553 C.2     1  UNL1        0.3386
     21 O          -1.9320   -0.8932    1.6839 O.2     1  UNL1       -0.2451
     22 O          -3.9544   -1.5578    2.5440 O.3     1  UNL1       -0.4771
     23 H           4.7020   -2.0908   -1.6100 H       1  UNL1        0.0660
     24 H           4.2860   -2.9748   -0.0491 H       1  UNL1        0.0660
     25 H           3.3343   -3.2297   -1.5754 H       1  UNL1        0.0660
     26 H           5.5290   -0.9222   -0.0682 H       1  UNL1        0.0654
     27 H           6.4356    1.1205    0.9524 H       1  UNL1        0.0619
     28 H           4.9030    2.9644    1.5850 H       1  UNL1        0.0618
     29 H           2.5040    2.7229    1.1829 H       1  UNL1        0.0625
     30 H           0.9054   -0.3835   -0.3963 H       1  UNL1        0.0626
     31 H           0.6536    2.3733    0.8001 H       1  UNL1        0.0670
     32 H          -1.0307   -0.6926   -0.7718 H       1  UNL1        0.1551
     33 H          -2.9932    0.8181   -2.6871 H       1  UNL1        0.0636
     34 H          -5.4771    0.5948   -3.0183 H       1  UNL1        0.0618
     35 H          -6.8222   -0.3527   -1.2629 H       1  UNL1        0.0618
     36 H          -5.7912   -1.1180    0.8830 H       1  UNL1        0.0626
     37 H          -3.6445   -1.4322    3.5158 H       1  UNL1        0.2954
@<TRIPOS>BOND
     1     1     2    1
     2     2     3    1
     3     3     4   ar
     4     4     5   ar
     5     5     6   ar
     6     6     7   ar
     7     7     8   ar
     8     8     9    1
     9     9    10    2
    10    10    11    1
    11    11    12    2
    12    11    13   am
    13    13    14    1
    14    14    15   ar
    15    15    16   ar
    16    16    17   ar
    17    17    18   ar
    18    18    19   ar
    19    19    20    1
    20    20    21    2
    21    20    22    1
    22     8     3   ar
    23    19    14   ar
    24     1    23    1
    25     1    24    1
    26     1    25    1
    27     4    26    1
    28     5    27    1
    29     6    28    1
    30     7    29    1
    31     9    30    1
    32    10    31    1
    33    13    32    1
    34    15    33    1
    35    16    34    1
    36    17    35    1
    37    18    36    1
    38    22    37    1
@<TRIPOS>MOLECULE
30219
 53 54 0 0 0
SMALL
GASTEIGER

@<TRIPOS>ATOM
      1 C          -8.2068   -0.1841   -1.3655 C.3     1  UNL1       -0.0653
      2 C          -6.8473   -0.7583   -1.0346 C.3     1  UNL1       -0.0559
      3 C          -6.0398    0.3363   -0.3804 C.3     1  UNL1       -0.0530
      4 C          -4.6591   -0.1525   -0.0143 C.3     1  UNL1       -0.0491
      5 C          -3.9239    0.9922    0.6286 C.3     1  UNL1       -0.0275
      6 C          -2.5366    0.5792    1.0213 C.ar    1  UNL1       -0.0404
      7 C          -2.2478    0.0453    2.2526 C.ar    1  UNL1       -0.0162
      8 C          -0.9554   -0.3198    2.5681 C.ar    1  UNL1        0.1277
      9 O          -0.6950   -0.8574    3.8226 O.3     1  UNL1       -0.5060
     10 C           0.0985   -0.1632    1.6593 C.ar    1  UNL1        0.0579
     11 C          -0.1844    0.3674    0.4336 C.ar    1  UNL1        0.1326
     12 C          -1.5015    0.7319    0.1315 C.ar    1  UNL1       -0.0159
     13 O           0.8245    0.5332   -0.4773 O.3     1  UNL1       -0.4812
     14 C           2.1922    0.1927   -0.2558 C.3     1  UNL1        0.1266
     15 C           2.9305    1.5311   -0.3720 C.3     1  UNL1       -0.0212
     16 C           2.5408   -0.7596   -1.3472 C.3     1  UNL1       -0.0060
     17 C           3.9212   -1.2951   -1.3749 C.3     1  UNL1       -0.0306
     18 C           4.9849   -0.2683   -1.5238 C.2     1  UNL1       -0.0851
     19 C           5.9707   -0.0579   -0.6701 C.2     1  UNL1       -0.0796
     20 C           6.9462    1.0278   -0.9986 C.3     1  UNL1       -0.0440
     21 C           6.1794   -0.8231    0.5878 C.3     1  UNL1       -0.0440
     22 C           2.3988   -0.3741    1.0984 C.2     1  UNL1       -0.0405
     23 C           1.4423   -0.5442    1.9930 C.2     1  UNL1       -0.0478
     24 H          -8.0710    0.7040   -2.0267 H       1  UNL1        0.0230
     25 H          -8.8540   -0.9297   -1.8703 H       1  UNL1        0.0230
     26 H          -8.6808    0.2175   -0.4357 H       1  UNL1        0.0230
     27 H          -6.9667   -1.6367   -0.3779 H       1  UNL1        0.0263
     28 H          -6.3541   -1.0204   -1.9910 H       1  UNL1        0.0263
     29 H          -6.5823    0.7092    0.5191 H       1  UNL1        0.0265
     30 H          -5.9320    1.1684   -1.0987 H       1  UNL1        0.0265
     31 H          -4.1436   -0.4157   -0.9675 H       1  UNL1        0.0268
     32 H          -4.6661   -1.0593    0.6002 H       1  UNL1        0.0268
     33 H          -3.8026    1.8026   -0.1196 H       1  UNL1        0.0313
     34 H          -4.4866    1.4144    1.4727 H       1  UNL1        0.0313
     35 H          -3.0625   -0.0801    2.9662 H       1  UNL1        0.0657
     36 H          -1.2870   -1.6189    4.1382 H       1  UNL1        0.2922
     37 H          -1.6593    1.1451   -0.8531 H       1  UNL1        0.0657
     38 H           3.8051    1.5845    0.2845 H       1  UNL1        0.0271
     39 H           3.2691    1.7317   -1.4078 H       1  UNL1        0.0271
     40 H           2.2295    2.3854   -0.1425 H       1  UNL1        0.0271
     41 H           1.7818   -1.5794   -1.3094 H       1  UNL1        0.0310
     42 H           2.3858   -0.2056   -2.3182 H       1  UNL1        0.0310
     43 H           3.9962   -1.9127   -2.3222 H       1  UNL1        0.0309
     44 H           4.1439   -2.0223   -0.5676 H       1  UNL1        0.0309
     45 H           4.9346    0.3589   -2.4269 H       1  UNL1        0.0571
     46 H           7.4788    0.7922   -1.9471 H       1  UNL1        0.0274
     47 H           6.3977    1.9860   -1.2052 H       1  UNL1        0.0274
     48 H           7.6268    1.2467   -0.1602 H       1  UNL1        0.0274
     49 H           5.7987   -1.8421    0.5748 H       1  UNL1        0.0274
     50 H           7.2882   -0.8217    0.8050 H       1  UNL1        0.0274
     51 H           5.7506   -0.2514    1.4606 H       1  UNL1        0.0274
     52 H           3.3965   -0.6671    1.3702 H       1  UNL1        0.0611
     53 H           1.6329   -0.9627    2.9748 H       1  UNL1        0.0624
@<TRIPOS>BOND
     1     1     2    1
     2     2     3    1
     3     3     4    1
     4     4     5    1
     5     5     6    1
     6     6     7   ar
     7     7     8   ar
     8     8     9    1
     9     8    10   ar
    10    10    11   ar
    11    11    12   ar
    12    11    13    1
    13    13    14    1
    14    14    15    1
    15    14    16    1
    16    16    17    1
    17    17    18    1
    18    18    19    2
    19    19    20    1
    20    19    21    1
    21    14    22    1
    22    22    23    2
    23    12     6   ar
    24    23    10    1
    25     1    24    1
    26     1    25    1
    27     1    26    1
    28     2    27    1
    29     2    28    1
    30     3    29    1
    31     3    30    1
    32     4    31    1
    33     4    32    1
    34     5    33    1
    35     5    34    1
    36     7    35    1
    37     9    36    1
    38    12    37    1
    39    15    38    1
    40    15    39    1
    41    15    40    1
    42    16    41    1
    43    16    42    1
    44    17    43    1
    45    17    44    1
    46    18    45    1
    47    20    46    1
    48    20    47    1
    49    20    48    1
    50    21    49    1
    51    21    50    1
    52    21    51    1
    53    22    52    1
    54    23    53    1
@<TRIPOS>MOLECULE
51028008
 42 43 0 0 0
SMALL
GASTEIGER

@<TRIPOS>ATOM
      1 C          -3.0938   -3.6676    1.0095 C.3     1  UNL1       -0.0397
      2 C          -3.1419   -2.2110    0.7262 C.ar    1  UNL1       -0.0487
      3 C          -4.3413   -1.5600    0.6500 C.ar    1  UNL1       -0.0585
      4 C          -4.3607   -0.2129    0.3861 C.ar    1  UNL1       -0.0563
      5 C          -3.1937    0.4987    0.1959 C.ar    1  UNL1       -0.0235
      6 C          -3.3093    1.9326   -0.1245 C.3     1  UNL1       -0.0198
      7 C          -2.8595    2.8382    0.9667 C.3     1  UNL1       -0.0586
      8 C          -2.7120    2.3015   -1.4491 C.3     1  UNL1       -0.0586
      9 C          -1.9465   -0.1292    0.2670 C.ar    1  UNL1        0.0401
     10 N          -0.8055    0.6700    0.1071 N.am    1  UNL1       -0.2506
     11 C           0.5110    0.1589    0.0268 C.2     1  UNL1        0.4099
     12 O           0.8103   -1.0381    0.0843 O.2     1  UNL1       -0.2257
     13 O           1.6124    1.0319   -0.1318 O.3     1  UNL1       -0.4113
     14 C           2.9112    0.5550   -0.2130 C.ar    1  UNL1        0.1333
     15 C           3.4165    0.2458   -1.4571 C.ar    1  UNL1       -0.0186
     16 C           4.7231   -0.2396   -1.5947 C.ar    1  UNL1       -0.0466
     17 C           5.5383   -0.4218   -0.4989 C.ar    1  UNL1        0.0550
     18 C           6.9310   -0.9423   -0.6767 C.3     1  UNL1        0.4174
     19 F           7.6497   -0.0107   -1.4039 F       1  UNL1       -0.1659
     20 F           7.5038   -1.1906    0.5370 F       1  UNL1       -0.1659
     21 F           6.9154   -2.1189   -1.3929 F       1  UNL1       -0.1659
     22 C           5.0307   -0.1120    0.7418 C.ar    1  UNL1       -0.0466
     23 C           3.7313    0.3704    0.8756 C.ar    1  UNL1       -0.0186
     24 C          -1.9824   -1.4732    0.5321 C.ar    1  UNL1       -0.0372
     25 H          -3.9894   -4.1431    0.5376 H       1  UNL1        0.0278
     26 H          -3.2452   -3.7889    2.1063 H       1  UNL1        0.0278
     27 H          -2.1797   -4.1552    0.6515 H       1  UNL1        0.0278
     28 H          -5.2753   -2.1125    0.7988 H       1  UNL1        0.0620
     29 H          -5.3386    0.2433    0.3386 H       1  UNL1        0.0621
     30 H          -4.4252    2.1442   -0.2446 H       1  UNL1        0.0344
     31 H          -2.4077    2.2725    1.8071 H       1  UNL1        0.0235
     32 H          -2.1679    3.6555    0.6125 H       1  UNL1        0.0235
     33 H          -3.7299    3.3644    1.3968 H       1  UNL1        0.0235
     34 H          -3.5506    2.5955   -2.1424 H       1  UNL1        0.0235
     35 H          -2.0783    3.2112   -1.3031 H       1  UNL1        0.0235
     36 H          -2.1175    1.4936   -1.9255 H       1  UNL1        0.0235
     37 H          -0.8764    1.7076    0.0548 H       1  UNL1        0.1582
     38 H           2.7981    0.3776   -2.3508 H       1  UNL1        0.0654
     39 H           5.1284   -0.4852   -2.5687 H       1  UNL1        0.0624
     40 H           5.6477   -0.2452    1.6177 H       1  UNL1        0.0624
     41 H           3.3139    0.6198    1.8442 H       1  UNL1        0.0654
     42 H          -1.0447   -2.0296    0.6058 H       1  UNL1        0.0639
@<TRIPOS>BOND
     1     1     2    1
     2     2     3   ar
     3     3     4   ar
     4     4     5   ar
     5     5     6    1
     6     6     7    1
     7     6     8    1
     8     5     9   ar
     9     9    10    1
    10    10    11   am
    11    11    12    2
    12    11    13    1
    13    13    14    1
    14    14    15   ar
    15    15    16   ar
    16    16    17   ar
    17    17    18    1
    18    18    19    1
    19    18    20    1
    20    18    21    1
    21    17    22   ar
    22    22    23   ar
    23     9    24   ar
    24    24     2   ar
    25    23    14   ar
    26     1    25    1
    27     1    26    1
    28     1    27    1
    29     3    28    1
    30     4    29    1
    31     6    30    1
    32     7    31    1
    33     7    32    1
    34     7    33    1
    35     8    34    1
    36     8    35    1
    37     8    36    1
    38    10    37    1
    39    15    38    1
    40    16    39    1
    41    22    40    1
    42    23    41    1
    43    24    42    1
@<TRIPOS>MOLECULE
51324149
 65 69 0 0 0
SMALL
GASTEIGER

@<TRIPOS>ATOM
      1 C           8.2117    3.0255   -0.4798 C.3     1  UNL1        0.0790
      2 O           7.9667    1.6582   -0.2077 O.3     1  UNL1       -0.4915
      3 C           6.6635    1.2052   -0.3438 C.ar    1  UNL1        0.1615
      4 C           5.6218    2.0206   -0.7257 C.ar    1  UNL1       -0.0157
      5 C           4.3411    1.5132   -0.8449 C.ar    1  UNL1       -0.0508
      6 C           4.0359    0.2099   -0.5980 C.ar    1  UNL1       -0.0194
      7 C           2.7429   -0.4131   -0.6644 C.2     1  UNL1       -0.0281
      8 CA          1.7068    0.0787   -0.0447 C.2     1  UNL1        0.0967
      9 N           1.7576    1.2528    0.7458 N.am    1  UNL1       -0.2798
     10 C           0.5560    1.7056    1.3512 C.2     1  UNL1        0.2382
     11 O           0.6317    2.5176    2.3423 O.2     1  UNL1       -0.2734
     12 CA         -0.7591    1.2498    0.8487 C.3     1  UNL1        0.1077
     13 C          -1.8147    1.5018    1.9235 C.3     1  UNL1        0.0000
     14 C          -3.1134    1.1671    1.2447 C.ar    1  UNL1       -0.0362
     15 C          -4.2020    2.0058    1.2377 C.ar    1  UNL1       -0.0127
     16 C          -5.3617    1.6440    0.5747 C.ar    1  UNL1        0.1618
     17 O          -6.4586    2.4855    0.5659 O.3     1  UNL1       -0.4914
     18 C          -6.4016    3.7086    1.2290 C.3     1  UNL1        0.0790
     19 C          -5.3761    0.4100   -0.0757 C.ar    1  UNL1        0.1618
     20 O          -6.5547    0.0717   -0.7346 O.3     1  UNL1       -0.4914
     21 C          -6.6894   -1.1591   -1.4345 C.3     1  UNL1        0.0790
     22 C          -4.2921   -0.4215   -0.0663 C.ar    1  UNL1       -0.0108
     23 C          -3.1378   -0.0435    0.6034 C.ar    1  UNL1       -0.0157
     24 C          -1.9458   -0.9148    0.6590 C.3     1  UNL1        0.0780
     25 C          -2.1163   -2.1122   -0.1914 C.ar    1  UNL1       -0.0225
     26 C          -2.1547   -2.0850   -1.5698 C.ar    1  UNL1       -0.0554
     27 C          -2.3135   -3.2394   -2.2933 C.ar    1  UNL1       -0.0474
     28 C          -2.4429   -4.4827   -1.6889 C.ar    1  UNL1        0.0179
     29 BR         -2.6633   -6.0878   -2.6896 Br      1  UNL1       -0.0503
     30 C          -2.4078   -4.5326   -0.3275 C.ar    1  UNL1       -0.0474
     31 C          -2.2482   -3.3709    0.3912 C.ar    1  UNL1       -0.0554
     32 N          -0.7741   -0.1353    0.4201 N.am    1  UNL1       -0.2735
     33 C           0.4009   -0.6126   -0.1945 C.2     1  UNL1        0.2622
     34 O           0.3558   -1.6492   -0.8881 O.2     1  UNL1       -0.2686
     35 C           5.0969   -0.6106   -0.2119 C.ar    1  UNL1       -0.0091
     36 C           6.3777   -0.1193   -0.0894 C.ar    1  UNL1        0.1620
     37 O           7.3845   -1.0165    0.3045 O.3     1  UNL1       -0.4914
     38 C           7.1010   -2.3631    0.5642 C.3     1  UNL1        0.0790
     39 H           7.4661    3.6110    0.1201 H       1  UNL1        0.0660
     40 H           8.0320    3.2247   -1.5547 H       1  UNL1        0.0660
     41 H           9.2271    3.3225   -0.1464 H       1  UNL1        0.0660
     42 H           5.7945    3.0571   -0.9342 H       1  UNL1        0.0655
     43 H           3.5541    2.1918   -1.1711 H       1  UNL1        0.0625
     44 H           2.6352   -1.3265   -1.2547 H       1  UNL1        0.0644
     45 H           2.6655    1.7604    0.8916 H       1  UNL1        0.1550
     46 HA         -1.0820    1.8613   -0.0352 H       1  UNL1        0.0600
     47 H          -1.6335    0.7793    2.7344 H       1  UNL1        0.0336
     48 H          -1.7392    2.5519    2.2055 H       1  UNL1        0.0336
     49 H          -4.1346    2.9568    1.7628 H       1  UNL1        0.0658
     50 H          -7.2439    4.3940    0.9509 H       1  UNL1        0.0660
     51 H          -6.3965    3.5263    2.3360 H       1  UNL1        0.0660
     52 H          -5.4767    4.2620    0.9685 H       1  UNL1        0.0660
     53 H          -5.7392   -1.3429   -1.9985 H       1  UNL1        0.0660
     54 H          -7.5057   -1.1368   -2.1646 H       1  UNL1        0.0660
     55 H          -6.8272   -1.9472   -0.6705 H       1  UNL1        0.0660
     56 H          -4.2910   -1.3636   -0.5579 H       1  UNL1        0.0659
     57 H          -1.8756   -1.2664    1.7184 H       1  UNL1        0.0601
     58 H          -2.0585   -1.1284   -2.0738 H       1  UNL1        0.0621
     59 H          -2.3471   -3.2443   -3.3891 H       1  UNL1        0.0629
     60 H          -2.5061   -5.4938    0.1866 H       1  UNL1        0.0629
     61 H          -2.2244   -3.4507    1.4853 H       1  UNL1        0.0621
     62 H           4.9255   -1.6591   -0.0002 H       1  UNL1        0.0661
     63 H           8.0053   -2.8301    1.0011 H       1  UNL1        0.0660
     64 H           6.7639   -2.8753   -0.3607 H       1  UNL1        0.0660
     65 H           6.2869   -2.4964    1.3116 H       1  UNL1        0.0660
@<TRIPOS>BOND
     1     1     2    1
     2     2     3    1
     3     3     4   ar
     4     4     5   ar
     5     5     6   ar
     6     6     7    1
     7     7     8    2
     8     8     9    1
     9     9    10   am
    10    10    11    2
    11    10    12    1
    12    12    13    1
    13    13    14    1
    14    14    15   ar
    15    15    16   ar
    16    16    17    1
    17    17    18    1
    18    16    19   ar
    19    19    20    1
    20    20    21    1
    21    19    22   ar
    22    22    23   ar
    23    23    24    1
    24    24    25    1
    25    25    26   ar
    26    26    27   ar
    27    27    28   ar
    28    28    29    1
    29    28    30   ar
    30    30    31   ar
    31    24    32    1
    32    32    33   am
    33    33    34    2
    34     6    35   ar
    35    35    36   ar
    36    36    37    1
    37    37    38    1
    38    36     3   ar
    39    33     8    1
    40    32    12    1
    41    23    14   ar
    42    31    25   ar
    43     1    39    1
    44     1    40    1
    45     1    41    1
    46     4    42    1
    47     5    43    1
    48     7    44    1
    49     9    45    1
    50    12    46    1
    51    13    47    1
    52    13    48    1
    53    15    49    1
    54    18    50    1
    55    18    51    1
    56    18    52    1
    57    21    53    1
    58    21    54    1
    59    21    55    1
    60    22    56    1
    61    24    57    1
    62    26    58    1
    63    27    59    1
    64    30    60    1
    65    31    61    1
    66    35    62    1
    67    38    63    1
    68    38    64    1
    69    38    65    1
@<TRIPOS>MOLECULE
CHEMBL3889714
 53 55 0 0 0
SMALL
GASTEIGER

@<TRIPOS>ATOM
      1 C           6.5838   -0.9242   -0.1630 C.3     1  UNL1        0.0788
      2 O           5.4497   -0.3554    0.4097 O.3     1  UNL1       -0.4951
      3 C           4.1687   -0.7176   -0.0243 C.ar    1  UNL1        0.1204
      4 C           3.9915   -1.6364   -1.0219 C.ar    1  UNL1       -0.0199
      5 C           2.7219   -1.9496   -1.4035 C.ar    1  UNL1       -0.0580
      6 C           1.6139   -1.3402   -0.7838 C.ar    1  UNL1       -0.0566
      7 C           1.7823   -0.4398    0.1944 C.ar    1  UNL1       -0.0238
      8 C           0.6441    0.2376    0.9213 C.3     1  UNL1        0.0499
      9 C           0.4341   -0.3310    2.2473 C.3     1  UNL1       -0.0422
     10 N          -0.4270    0.5817    0.0718 N.am    1  UNL1       -0.2751
     11 C          -1.5239   -0.1837   -0.3816 C.2     1  UNL1        0.2480
     12 O          -2.3708    0.3603   -1.2169 O.2     1  UNL1       -0.2699
     13 C          -1.9000   -1.5403   -0.0562 C.ar    1  UNL1        0.0369
     14 C          -2.2494   -1.9137    1.2433 C.ar    1  UNL1       -0.0496
     15 C          -2.6354   -3.1956    1.5698 C.ar    1  UNL1       -0.0610
     16 C          -2.6952   -4.1818    0.6080 C.ar    1  UNL1       -0.0617
     17 C          -2.3505   -3.8221   -0.6887 C.ar    1  UNL1       -0.0610
     18 C          -1.9676   -2.5423   -0.9991 C.ar    1  UNL1       -0.0496
     19 C          -0.4076    2.0022   -0.4281 C.3     1  UNL1        0.1280
     20 C          -0.2407    2.0823   -1.8782 C.2     1  UNL1        0.2356
     21 N          -0.3575    1.0439   -2.8137 N.am    1  UNL1       -0.3275
     22 O           0.0454    3.2293   -2.3731 O.2     1  UNL1       -0.2736
     23 C          -1.6394    2.6882    0.0420 C.ar    1  UNL1       -0.0182
     24 C          -2.4294    3.4389   -0.7985 C.ar    1  UNL1       -0.0563
     25 C          -3.5886    4.0815   -0.3809 C.ar    1  UNL1       -0.0614
     26 C          -4.0049    3.9856    0.9403 C.ar    1  UNL1       -0.0617
     27 C          -3.2223    3.2382    1.7843 C.ar    1  UNL1       -0.0614
     28 C          -2.0752    2.6074    1.3558 C.ar    1  UNL1       -0.0563
     29 C           3.0959   -0.1304    0.5733 C.ar    1  UNL1       -0.0150
     30 H           6.4397   -0.9811   -1.2671 H       1  UNL1        0.0660
     31 H           7.4827   -0.2902    0.0734 H       1  UNL1        0.0660
     32 H           6.7968   -1.9580    0.1779 H       1  UNL1        0.0660
     33 H           4.8062   -2.1267   -1.5205 H       1  UNL1        0.0654
     34 H           2.4889   -2.6632   -2.1814 H       1  UNL1        0.0619
     35 H           0.6437   -1.6296   -1.1397 H       1  UNL1        0.0621
     36 H           1.1753    1.2796    1.1101 H       1  UNL1        0.0548
     37 H          -0.3979    0.0993    2.8255 H       1  UNL1        0.0251
     38 H           0.3520   -1.4334    2.3059 H       1  UNL1        0.0251
     39 H           1.3692   -0.1064    2.8606 H       1  UNL1        0.0251
     40 H          -2.2416   -1.2057    2.0478 H       1  UNL1        0.0625
     41 H          -2.9046   -3.4800    2.5807 H       1  UNL1        0.0618
     42 H          -2.9948   -5.1945    0.8347 H       1  UNL1        0.0618
     43 H          -2.4094   -4.6225   -1.4247 H       1  UNL1        0.0618
     44 H          -1.7115   -2.3046   -2.0097 H       1  UNL1        0.0625
     45 H           0.4623    2.5405    0.0071 H       1  UNL1        0.0648
     46 H          -0.7507    1.1784   -3.7820 H       1  UNL1        0.1450
     47 H          -0.0549    0.0824   -2.5930 H       1  UNL1        0.1450
     48 H          -2.1512    3.5395   -1.8417 H       1  UNL1        0.0621
     49 H          -4.1778    4.6560   -1.0673 H       1  UNL1        0.0618
     50 H          -4.9131    4.4868    1.2680 H       1  UNL1        0.0618
     51 H          -3.5256    3.1459    2.8126 H       1  UNL1        0.0618
     52 H          -1.4557    2.0227    2.0114 H       1  UNL1        0.0621
     53 H           3.2261    0.5919    1.3617 H       1  UNL1        0.0657
@<TRIPOS>BOND
     1     1     2    1
     2     2     3    1
     3     3     4   ar
     4     4     5   ar
     5     5     6   ar
     6     6     7   ar
     7     7     8    1
     8     8     9    1
     9     8    10    1
    10    10    11   am
    11    11    12    2
    12    11    13    1
    13    13    14   ar
    14    14    15   ar
    15    15    16   ar
    16    16    17   ar
    17    17    18   ar
    18    10    19    1
    19    19    20    1
    20    20    21   am
    21    20    22    2
    22    19    23    1
    23    23    24   ar
    24    24    25   ar
    25    25    26   ar
    26    26    27   ar
    27    27    28   ar
    28     7    29   ar
    29    29     3   ar
    30    18    13   ar
    31    28    23   ar
    32     1    30    1
    33     1    31    1
    34     1    32    1
    35     4    33    1
    36     5    34    1
    37     6    35    1
    38     8    36    1
    39     9    37    1
    40     9    38    1
    41     9    39    1
    42    14    40    1
    43    15    41    1
    44    16    42    1
    45    17    43    1
    46    18    44    1
    47    19    45    1
    48    21    46    1
    49    21    47    1
    50    24    48    1
    51    25    49    1
    52    26    50    1
    53    27    51    1
    54    28    52    1
    55    29    53    1
@<TRIPOS>MOLECULE
51324103
 100 107 0 0 0
SMALL
GASTEIGER

@<TRIPOS>ATOM
      1 C          -5.1236   -6.2020   -2.7992 C.3     1  UNL1        0.0790
      2 O          -5.4538   -4.8634   -2.4404 O.3     1  UNL1       -0.4914
      3 C          -4.4705   -3.9286   -2.1388 C.ar    1  UNL1        0.1618
      4 C          -3.1526   -4.3052   -2.1880 C.ar    1  UNL1       -0.0127
      5 C          -2.1684   -3.3535   -1.8800 C.ar    1  UNL1       -0.0369
      6 C          -2.5381   -2.0912   -1.5432 C.ar    1  UNL1       -0.0142
      7 C          -3.8949   -1.7145   -1.4965 C.ar    1  UNL1       -0.0107
      8 C          -4.8528   -2.6424   -1.7964 C.ar    1  UNL1        0.1618
      9 O          -6.2085   -2.3292   -1.7678 O.3     1  UNL1       -0.4914
     10 C          -6.7426   -1.0842   -1.4452 C.3     1  UNL1        0.0790
     11 C          -1.5446   -1.0631   -1.1967 C.3     1  UNL1        0.0952
     12 C          -2.0310    0.2864   -1.6374 C.ar    1  UNL1        0.0669
     13 C          -1.9183    0.7169   -2.9225 C.ar    1  UNL1       -0.0382
     14 C          -2.4111    1.9567   -3.2534 C.ar    1  UNL1       -0.0580
     15 C          -3.0101    2.7545   -2.3037 C.ar    1  UNL1       -0.0357
     16 C          -3.1128    2.3023   -1.0147 C.ar    1  UNL1        0.0716
     17 C          -3.7402    3.0991    0.0596 C.ar    1  UNL1        0.0068
     18 C          -3.7956    2.5683    1.3487 C.ar    1  UNL1       -0.0521
     19 C          -4.3786    3.2696    2.3748 C.ar    1  UNL1       -0.0547
     20 C          -4.9171    4.5188    2.1248 C.ar    1  UNL1        0.0156
     21 C          -4.8829    5.0754    0.8715 C.ar    1  UNL1        0.2738
     22 N          -5.4463    6.3522    0.6521 N.pl3   1  UNL1        0.0796
     23 O          -5.9650    6.9659    1.5926 O.2     1  UNL1        0.0414
     24 O          -5.4321    6.9339   -0.5858 O.co2   1  UNL1       -0.5760
     25 C          -4.2849    4.3407   -0.1514 C.ar    1  UNL1        0.0247
     26 N          -2.6120    1.0701   -0.7303 N.ar    1  UNL1       -0.2494
     27 N          -0.2494   -1.3399   -1.7118 N.am    1  UNL1       -0.2726
     28 C           0.8359   -0.4768   -1.3269 C.2     1  UNL1        0.3064
     29 O           0.4678    0.3264   -0.3680 O.2     1  UNL1       -0.2524
     30 N           2.1211   -0.4253   -1.8282 N.am    1  UNL1       -0.2726
     31 C           2.7504   -1.0210   -2.9623 C.3     1  UNL1        0.0211
     32 C           3.8999   -1.9273   -2.4689 C.3     1  UNL1       -0.0113
     33 C           3.9135   -2.0307   -0.9850 C.ar    1  UNL1       -0.0369
     34 C           4.2420   -3.2290   -0.3620 C.ar    1  UNL1       -0.0127
     35 C           4.2284   -3.3281    1.0016 C.ar    1  UNL1        0.1618
     36 O           4.5567   -4.5501    1.5851 O.3     1  UNL1       -0.4914
     37 C           4.9499   -5.6604    0.8054 C.3     1  UNL1        0.0790
     38 C           3.8961   -2.2533    1.7837 C.ar    1  UNL1        0.1618
     39 O           3.9135   -2.4626    3.1451 O.3     1  UNL1       -0.4914
     40 C           3.6012   -1.5166    4.1388 C.3     1  UNL1        0.0790
     41 C           3.5598   -1.0246    1.1917 C.ar    1  UNL1       -0.0107
     42 C           3.5741   -0.9394   -0.1710 C.ar    1  UNL1       -0.0142
     43 C           3.1693    0.2471   -0.9568 C.3     1  UNL1        0.0952
     44 C           2.7515    1.4451   -0.3345 C.ar    1  UNL1        0.0669
     45 C           1.9745    2.3375   -1.0917 C.ar    1  UNL1       -0.0382
     46 C           1.5408    3.5369   -0.6458 C.ar    1  UNL1       -0.0580
     47 C           1.8691    3.9418    0.6387 C.ar    1  UNL1       -0.0357
     48 C           2.6300    3.0834    1.3971 C.ar    1  UNL1        0.0716
     49 C           3.0427    3.4869    2.7377 C.ar    1  UNL1        0.0068
     50 C           2.6894    4.6522    3.3412 C.ar    1  UNL1       -0.0521
     51 C           3.1388    5.0098    4.6179 C.ar    1  UNL1       -0.0547
     52 C           3.9682    4.1600    5.2959 C.ar    1  UNL1        0.0156
     53 C           4.3533    2.9585    4.7150 C.ar    1  UNL1        0.2738
     54 N           5.2224    2.1183    5.4450 N.pl3   1  UNL1        0.0796
     55 O           5.6119    2.4527    6.5761 O.2     1  UNL1        0.0414
     56 O           5.6412    0.9430    4.9199 O.co2   1  UNL1       -0.5760
     57 C           3.8907    2.6429    3.4602 C.ar    1  UNL1        0.0247
     58 N           3.0385    1.8844    0.8969 N.ar    1  UNL1       -0.2494
     59 C           0.0053   -2.5071   -2.5091 C.3     1  UNL1        0.0211
     60 C          -0.7475   -3.7277   -1.9222 C.3     1  UNL1       -0.0113
     61 H          -6.0299   -6.6727   -3.2257 H       1  UNL1        0.0660
     62 H          -4.7547   -6.7924   -1.9333 H       1  UNL1        0.0660
     63 H          -4.3432   -6.1501   -3.6066 H       1  UNL1        0.0660
     64 H          -2.7951   -5.2936   -2.4465 H       1  UNL1        0.0658
     65 H          -4.1472   -0.6852   -1.2190 H       1  UNL1        0.0659
     66 H          -7.7402   -1.1942   -0.9494 H       1  UNL1        0.0660
     67 H          -6.9409   -0.4753   -2.3681 H       1  UNL1        0.0660
     68 H          -6.1314   -0.4860   -0.7626 H       1  UNL1        0.0660
     69 H          -1.4919   -1.0726   -0.0649 H       1  UNL1        0.0617
     70 H          -1.4441    0.0805   -3.6694 H       1  UNL1        0.0636
     71 H          -2.3355    2.3217   -4.2712 H       1  UNL1        0.0619
     72 H          -3.4030    3.7427   -2.5712 H       1  UNL1        0.0639
     73 H          -3.3795    1.6024    1.5467 H       1  UNL1        0.0624
     74 H          -4.4145    2.8464    3.3646 H       1  UNL1        0.0620
     75 H          -5.3621    5.0364    2.9545 H       1  UNL1        0.0685
     76 H          -4.2706    4.7928   -1.1227 H       1  UNL1        0.0692
     77 H           2.1878   -1.5205   -3.7003 H       1  UNL1        0.0468
     78 H           3.2972   -0.1509   -3.4851 H       1  UNL1        0.0468
     79 H           3.6730   -2.9605   -2.8622 H       1  UNL1        0.0328
     80 H           4.8397   -1.6150   -2.9061 H       1  UNL1        0.0328
     81 H           4.5055   -4.0722   -0.9918 H       1  UNL1        0.0658
     82 H           5.2724   -6.5135    1.3986 H       1  UNL1        0.0660
     83 H           4.1217   -5.8876    0.1073 H       1  UNL1        0.0660
     84 H           5.8139   -5.3430    0.1934 H       1  UNL1        0.0660
     85 H           4.2809   -1.6757    5.0303 H       1  UNL1        0.0660
     86 H           3.6036   -0.4748    3.8111 H       1  UNL1        0.0660
     87 H           2.5798   -1.8178    4.5314 H       1  UNL1        0.0660
     88 H           3.3022   -0.1988    1.8383 H       1  UNL1        0.0659
     89 H           4.0379    0.4235   -1.6680 H       1  UNL1        0.0617
     90 H           1.7098    2.0288   -2.1140 H       1  UNL1        0.0636
     91 H           0.9435    4.2099   -1.2359 H       1  UNL1        0.0619
     92 H           1.5235    4.9087    1.0083 H       1  UNL1        0.0639
     93 H           2.0393    5.3421    2.8372 H       1  UNL1        0.0624
     94 H           2.8147    5.9443    5.0238 H       1  UNL1        0.0620
     95 H           4.3363    4.4101    6.2917 H       1  UNL1        0.0685
     96 H           4.1988    1.7015    3.0157 H       1  UNL1        0.0692
     97 H          -0.3043   -2.4459   -3.5558 H       1  UNL1        0.0468
     98 H           1.1010   -2.8150   -2.4124 H       1  UNL1        0.0468
     99 H          -0.3150   -3.9668   -0.9390 H       1  UNL1        0.0328
    100 H          -0.5419   -4.5516   -2.6516 H       1  UNL1        0.0328
@<TRIPOS>UNITY_ATOM_ATTR
22 1
charge 1
24 1
charge -1
54 1
charge 1
56 1
charge -1
@<TRIPOS>BOND
     1     1     2    1
     2     2     3    1
     3     3     4   ar
     4     4     5   ar
     5     5     6   ar
     6     6     7   ar
     7     7     8   ar
     8     8     9    1
     9     9    10    1
    10     6    11    1
    11    11    12    1
    12    12    13   ar
    13    13    14   ar
    14    14    15   ar
    15    15    16   ar
    16    16    17    1
    17    17    18   ar
    18    18    19   ar
    19    19    20   ar
    20    20    21   ar
    21    21    22    1
    22    22    23    2
    23    22    24    1
    24    21    25   ar
    25    16    26   ar
    26    11    27    1
    27    27    28   am
    28    28    29    2
    29    28    30   am
    30    30    31    1
    31    31    32    1
    32    32    33    1
    33    33    34   ar
    34    34    35   ar
    35    35    36    1
    36    36    37    1
    37    35    38   ar
    38    38    39    1
    39    39    40    1
    40    38    41   ar
    41    41    42   ar
    42    42    43    1
    43    43    44    1
    44    44    45   ar
    45    45    46   ar
    46    46    47   ar
    47    47    48   ar
    48    48    49    1
    49    49    50   ar
    50    50    51   ar
    51    51    52   ar
    52    52    53   ar
    53    53    54    1
    54    54    55    2
    55    54    56    1
    56    53    57   ar
    57    48    58   ar
    58    27    59    1
    59    59    60    1
    60     8     3   ar
    61    26    12   ar
    62    43    30    1
    63    58    44   ar
    64    60     5    1
    65    25    17   ar
    66    42    33   ar
    67    57    49   ar
    68     1    61    1
    69     1    62    1
    70     1    63    1
    71     4    64    1
    72     7    65    1
    73    10    66    1
    74    10    67    1
    75    10    68    1
    76    11    69    1
    77    13    70    1
    78    14    71    1
    79    15    72    1
    80    18    73    1
    81    19    74    1
    82    20    75    1
    83    25    76    1
    84    31    77    1
    85    31    78    1
    86    32    79    1
    87    32    80    1
    88    34    81    1
    89    37    82    1
    90    37    83    1
    91    37    84    1
    92    40    85    1
    93    40    86    1
    94    40    87    1
    95    41    88    1
    96    43    89    1
    97    45    90    1
    98    46    91    1
    99    47    92    1
   100    50    93    1
   101    51    94    1
   102    52    95    1
   103    57    96    1
   104    59    97    1
   105    59    98    1
   106    60    99    1
   107    60   100    1
@<TRIPOS>MOLECULE
CHEMBL1173240
 47 50 0 0 0
SMALL
GASTEIGER

@<TRIPOS>ATOM
      1 C           2.6366   -3.0925   -0.6944 C.3     1  UNL1       -0.0186
      2 C           1.9005   -1.8240   -0.4358 C.ar    1  UNL1        0.0861
      3 N           0.5389   -1.7082   -0.3929 N.ar    1  UNL1       -0.1999
      4 C           0.1758   -0.4536   -0.1481 C.ar    1  UNL1        0.2925
      5 N          -1.1213    0.1087   -0.0210 N.pl3   1  UNL1       -0.2686
      6 C          -2.3270   -0.6118   -0.1359 C.ar    1  UNL1        0.0384
      7 C          -2.4126   -1.9503   -0.3729 C.ar    1  UNL1       -0.0401
      8 C          -3.6226   -2.6176   -0.4691 C.ar    1  UNL1       -0.0597
      9 C          -4.7781   -1.9001   -0.3191 C.ar    1  UNL1       -0.0582
     10 C          -4.7458   -0.5441   -0.0781 C.ar    1  UNL1       -0.0423
     11 C          -3.5348    0.0973    0.0126 C.ar    1  UNL1       -0.0205
     12 C          -3.4027    1.5382    0.2517 C.3     1  UNL1        0.0005
     13 C          -4.7357    2.2116    0.2635 C.3     1  UNL1        0.0596
     14 O          -4.6008    3.4917    0.7993 O.3     1  UNL1       -0.3915
     15 C          -5.7189    1.3724    1.0242 C.3     1  UNL1       -0.0226
     16 C          -6.0539    0.1968    0.0942 C.3     1  UNL1       -0.0250
     17 O           1.2804    0.2406   -0.0327 O.2     1  UNL1       -0.4241
     18 C           2.3397   -0.5545   -0.2003 C.ar    1  UNL1        0.1597
     19 C           3.7223   -0.0787   -0.1310 C.ar    1  UNL1        0.0192
     20 C           3.9508    1.2876    0.0827 C.ar    1  UNL1       -0.0505
     21 C           5.2091    1.8211    0.1679 C.ar    1  UNL1       -0.0494
     22 C           6.3045    1.0056    0.0423 C.ar    1  UNL1        0.0548
     23 C           7.7033    1.5306    0.1263 C.3     1  UNL1        0.4174
     24 F           8.1050    1.9301   -1.1178 F       1  UNL1       -0.1659
     25 F           7.7535    2.5493    1.0587 F       1  UNL1       -0.1659
     26 F           8.5042    0.5128    0.6058 F       1  UNL1       -0.1659
     27 C           6.1238   -0.3256   -0.1658 C.ar    1  UNL1       -0.0494
     28 C           4.8287   -0.8522   -0.2499 C.ar    1  UNL1       -0.0505
     29 H           3.1950   -2.9942   -1.6458 H       1  UNL1        0.0294
     30 H           1.8152   -3.8392   -0.9700 H       1  UNL1        0.0294
     31 H           3.2071   -3.4720    0.1543 H       1  UNL1        0.0294
     32 H          -1.1519    1.1286    0.1771 H       1  UNL1        0.1565
     33 H          -1.5234   -2.5413   -0.4950 H       1  UNL1        0.0636
     34 H          -3.6780   -3.6965   -0.6606 H       1  UNL1        0.0618
     35 H          -5.7584   -2.3826   -0.3864 H       1  UNL1        0.0620
     36 H          -2.8520    1.6878    1.2116 H       1  UNL1        0.0339
     37 H          -2.7631    2.0123   -0.5524 H       1  UNL1        0.0339
     38 H          -5.0692    2.3102   -0.7928 H       1  UNL1        0.0596
     39 H          -4.5692    3.4745    1.7678 H       1  UNL1        0.2098
     40 H          -6.6727    1.8859    1.2258 H       1  UNL1        0.0293
     41 H          -5.2417    0.9617    1.9366 H       1  UNL1        0.0293
     42 H          -6.8120   -0.4620    0.5135 H       1  UNL1        0.0314
     43 H          -6.3034    0.6434   -0.8834 H       1  UNL1        0.0314
     44 H           3.1008    1.9600    0.1864 H       1  UNL1        0.0625
     45 H           5.3676    2.8950    0.3354 H       1  UNL1        0.0623
     46 H           6.9384   -1.0365   -0.2755 H       1  UNL1        0.0623
     47 H           4.7477   -1.9164   -0.4119 H       1  UNL1        0.0625
@<TRIPOS>BOND
     1     1     2    1
     2     2     3   ar
     3     3     4   ar
     4     4     5    1
     5     5     6    1
     6     6     7   ar
     7     7     8   ar
     8     8     9   ar
     9     9    10   ar
    10    10    11   ar
    11    11    12    1
    12    12    13    1
    13    13    14    1
    14    13    15    1
    15    15    16    1
    16     4    17   ar
    17    17    18   ar
    18    18    19    1
    19    19    20   ar
    20    20    21   ar
    21    21    22   ar
    22    22    23    1
    23    23    24    1
    24    23    25    1
    25    23    26    1
    26    22    27   ar
    27    27    28   ar
    28    18     2   ar
    29    28    19   ar
    30    11     6   ar
    31    16    10    1
    32     1    29    1
    33     1    30    1
    34     1    31    1
    35     5    32    1
    36     7    33    1
    37     8    34    1
    38     9    35    1
    39    12    36    1
    40    12    37    1
    41    13    38    1
    42    14    39    1
    43    15    40    1
    44    15    41    1
    45    16    42    1
    46    16    43    1
    47    20    44    1
    48    21    45    1
    49    27    46    1
    50    28    47    1
@<TRIPOS>MOLECULE
51324150
 82 87 0 0 0
SMALL
GASTEIGER

@<TRIPOS>ATOM
      1 C          -6.5031    2.4644   -4.9068 C.3     1  UNL1        0.0790
      2 O          -5.7516    1.3533   -4.6235 O.3     1  UNL1       -0.4914
      3 C          -4.8104    1.1940   -3.6573 C.ar    1  UNL1        0.1618
      4 C          -4.3908    2.1357   -2.7595 C.ar    1  UNL1       -0.0127
      5 C          -3.4073    1.8988   -1.7779 C.ar    1  UNL1       -0.0369
      6 C          -2.8367    0.6734   -1.7140 C.ar    1  UNL1       -0.0157
      7 C          -3.2321   -0.3280   -2.6162 C.ar    1  UNL1       -0.0108
      8 C          -4.1899   -0.0948   -3.5638 C.ar    1  UNL1        0.1618
      9 O          -4.6159   -1.0175   -4.4382 O.3     1  UNL1       -0.4914
     10 C          -4.4738   -2.2677   -4.8464 C.3     1  UNL1        0.0790
     11 C          -1.7237    0.3530   -0.7794 C.3     1  UNL1        0.0785
     12 C          -2.1824   -0.6431    0.2184 C.ar    1  UNL1       -0.0162
     13 C          -1.3346   -1.0646    1.2325 C.ar    1  UNL1       -0.0561
     14 C          -1.6829   -2.0491    2.1127 C.ar    1  UNL1       -0.0550
     15 C          -2.9390   -2.6578    1.9957 C.ar    1  UNL1        0.0156
     16 C          -3.7810   -2.2705    1.0274 C.ar    1  UNL1        0.2735
     17 N          -5.0827   -2.9023    0.8636 N.pl3   1  UNL1        0.0796
     18 O          -5.4882   -3.8129    1.5926 O.2     1  UNL1        0.0414
     19 O          -5.8716   -2.4538   -0.1609 O.co2   1  UNL1       -0.5760
     20 C          -3.4206   -1.2616    0.1297 C.ar    1  UNL1        0.0208
     21 N          -1.0502    1.4926   -0.2880 N.am    1  UNL1       -0.2741
     22 C           0.3446    1.5787   -0.0694 C.2     1  UNL1        0.3063
     23 O           0.6891    2.7037    0.5075 O.2     1  UNL1       -0.2524
     24 N           1.3985    0.7054   -0.3482 N.am    1  UNL1       -0.2741
     25 C           1.2853   -0.5134   -1.1006 C.3     1  UNL1        0.0210
     26 C           2.6483   -1.0640   -1.5587 C.3     1  UNL1       -0.0113
     27 C           3.4215   -1.2522   -0.3108 C.ar    1  UNL1       -0.0369
     28 C           4.0632   -2.4755   -0.0492 C.ar    1  UNL1       -0.0127
     29 C           4.7956   -2.6021    1.1184 C.ar    1  UNL1        0.1618
     30 O           5.4441   -3.8168    1.4093 O.3     1  UNL1       -0.4914
     31 C           5.2320   -4.8532    0.4076 C.3     1  UNL1        0.0790
     32 C           4.8749   -1.5389    1.9854 C.ar    1  UNL1        0.1618
     33 O           5.5442   -1.5640    3.0996 O.3     1  UNL1       -0.4914
     34 C           6.1942   -1.5363    4.2175 C.3     1  UNL1        0.0790
     35 C           4.1971   -0.2855    1.6869 C.ar    1  UNL1       -0.0108
     36 C           3.4908   -0.1905    0.5393 C.ar    1  UNL1       -0.0157
     37 C           2.7380    1.0825    0.1862 C.3     1  UNL1        0.0785
     38 C           2.7461    2.0436    1.2726 C.ar    1  UNL1       -0.0162
     39 C           3.4095    3.2446    1.0883 C.ar    1  UNL1       -0.0561
     40 C           3.5345    4.1554    2.1198 C.ar    1  UNL1       -0.0550
     41 C           3.0057    3.9019    3.3623 C.ar    1  UNL1        0.0156
     42 C           2.3322    2.6990    3.5686 C.ar    1  UNL1        0.2735
     43 N           1.7866    2.3821    4.8612 N.pl3   1  UNL1        0.0796
     44 O           1.8343    3.1922    5.7801 O.2     1  UNL1        0.0414
     45 O           1.2135    1.1313    5.0015 O.co2   1  UNL1       -0.5760
     46 C           2.2093    1.7901    2.5313 C.ar    1  UNL1        0.0208
     47 C          -1.8184    2.7208   -0.0141 C.3     1  UNL1        0.0210
     48 C          -3.0133    2.9477   -0.8401 C.3     1  UNL1       -0.0113
     49 H          -7.2983    2.2635   -5.6842 H       1  UNL1        0.0660
     50 H          -7.1747    2.7175   -3.9949 H       1  UNL1        0.0660
     51 H          -5.9755    3.4169   -5.0858 H       1  UNL1        0.0660
     52 H          -4.8337    3.1293   -2.8151 H       1  UNL1        0.0658
     53 H          -2.7415   -1.3129   -2.5191 H       1  UNL1        0.0659
     54 H          -4.1146   -2.3209   -5.9082 H       1  UNL1        0.0660
     55 H          -3.7295   -2.8288   -4.1977 H       1  UNL1        0.0660
     56 H          -5.4262   -2.9008   -4.8258 H       1  UNL1        0.0660
     57 H          -1.0397   -0.2584   -1.4823 H       1  UNL1        0.0602
     58 H          -0.3497   -0.5938    1.3594 H       1  UNL1        0.0621
     59 H          -1.0325   -2.3872    2.9020 H       1  UNL1        0.0620
     60 H          -3.2178   -3.4560    2.6874 H       1  UNL1        0.0685
     61 H          -4.1530   -1.0054   -0.5975 H       1  UNL1        0.0689
     62 H           0.7883   -1.3487   -0.6477 H       1  UNL1        0.0468
     63 H           0.8230   -0.2771   -2.1026 H       1  UNL1        0.0468
     64 H           3.1292   -0.3460   -2.2355 H       1  UNL1        0.0328
     65 H           2.4107   -2.0391   -2.0425 H       1  UNL1        0.0328
     66 H           3.9762   -3.2874   -0.7408 H       1  UNL1        0.0658
     67 H           5.5692   -4.5436   -0.5866 H       1  UNL1        0.0660
     68 H           4.1147   -4.9907    0.3268 H       1  UNL1        0.0660
     69 H           5.6810   -5.8004    0.7064 H       1  UNL1        0.0660
     70 H           5.8619   -0.8020    5.0452 H       1  UNL1        0.0660
     71 H           7.3056   -1.2415    4.1462 H       1  UNL1        0.0660
     72 H           6.2971   -2.5456    4.7624 H       1  UNL1        0.0660
     73 H           4.2868    0.5080    2.3954 H       1  UNL1        0.0659
     74 H           3.3374    1.5014   -0.6794 H       1  UNL1        0.0602
     75 H           3.8382    3.4928    0.1257 H       1  UNL1        0.0621
     76 H           4.0577    5.1148    2.0215 H       1  UNL1        0.0620
     77 H           3.0832    4.5721    4.2148 H       1  UNL1        0.0685
     78 H           1.6829    0.8506    2.6483 H       1  UNL1        0.0689
     79 H          -1.1324    3.6170   -0.2024 H       1  UNL1        0.0468
     80 H          -1.9682    2.7857    1.0977 H       1  UNL1        0.0468
     81 H          -2.9763    3.8991   -1.4378 H       1  UNL1        0.0328
     82 H          -3.9122    3.0899   -0.1493 H       1  UNL1        0.0328
@<TRIPOS>UNITY_ATOM_ATTR
17 1
charge 1
19 1
charge -1
43 1
charge 1
45 1
charge -1
@<TRIPOS>BOND
     1     1     2    1
     2     2     3    1
     3     3     4   ar
     4     4     5   ar
     5     5     6   ar
     6     6     7   ar
     7     7     8   ar
     8     8     9    1
     9     9    10    1
    10     6    11    1
    11    11    12    1
    12    12    13   ar
    13    13    14   ar
    14    14    15   ar
    15    15    16   ar
    16    16    17    1
    17    17    18    2
    18    17    19    1
    19    16    20   ar
    20    11    21    1
    21    21    22   am
    22    22    23    2
    23    22    24   am
    24    24    25    1
    25    25    26    1
    26    26    27    1
    27    27    28   ar
    28    28    29   ar
    29    29    30    1
    30    30    31    1
    31    29    32   ar
    32    32    33    1
    33    33    34    1
    34    32    35   ar
    35    35    36   ar
    36    36    37    1
    37    37    38    1
    38    38    39   ar
    39    39    40   ar
    40    40    41   ar
    41    41    42   ar
    42    42    43    1
    43    43    44    2
    44    43    45    1
    45    42    46   ar
    46    21    47    1
    47    47    48    1
    48     8     3   ar
    49    20    12   ar
    50    37    24    1
    51    46    38   ar
    52    48     5    1
    53    36    27   ar
    54     1    49    1
    55     1    50    1
    56     1    51    1
    57     4    52    1
    58     7    53    1
    59    10    54    1
    60    10    55    1
    61    10    56    1
    62    11    57    1
    63    13    58    1
    64    14    59    1
    65    15    60    1
    66    20    61    1
    67    25    62    1
    68    25    63    1
    69    26    64    1
    70    26    65    1
    71    28    66    1
    72    31    67    1
    73    31    68    1
    74    31    69    1
    75    34    70    1
    76    34    71    1
    77    34    72    1
    78    35    73    1
    79    37    74    1
    80    39    75    1
    81    40    76    1
    82    41    77    1
    83    46    78    1
    84    47    79    1
    85    47    80    1
    86    48    81    1
    87    48    82    1
@<TRIPOS>MOLECULE
51324153
 67 70 0 0 0
SMALL
GASTEIGER

@<TRIPOS>ATOM
      1 C           9.2513    0.3329    1.8810 C.3     1  UNL1        0.0790
      2 O           8.6096    0.6017    0.6269 O.3     1  UNL1       -0.4915
      3 C           7.2709    0.2745    0.5062 C.ar    1  UNL1        0.1615
      4 C           6.5572   -0.2917    1.5461 C.ar    1  UNL1       -0.0160
      5 C           5.2180   -0.6119    1.4049 C.ar    1  UNL1       -0.0548
      6 C           4.5904   -0.3652    0.2196 C.ar    1  UNL1       -0.0422
      7 C           3.1323   -0.7197    0.0753 C.3     1  UNL1       -0.0119
      8 C           2.3562    0.4770    0.4958 C.3     1  UNL1        0.0170
      9 N           0.9171    0.3164    0.4270 N.am    1  UNL1       -0.2989
     10 C           0.2616    0.0361   -0.7645 C.2     1  UNL1        0.3030
     11 O           1.0031   -0.0620   -1.7936 O.2     1  UNL1       -0.2526
     12 N          -1.1650   -0.1498   -0.9423 N.am    1  UNL1       -0.2742
     13 C          -1.5784   -0.3762   -2.3074 C.3     1  UNL1        0.0210
     14 C          -2.8542    0.2475   -2.7191 C.3     1  UNL1       -0.0113
     15 C          -3.8092    0.5146   -1.6126 C.ar    1  UNL1       -0.0369
     16 C          -5.0740    0.9367   -1.9797 C.ar    1  UNL1       -0.0127
     17 C          -6.0110    1.2033   -1.0035 C.ar    1  UNL1        0.1618
     18 O          -7.2978    1.6302   -1.3060 O.3     1  UNL1       -0.4914
     19 C          -7.6328    1.7883   -2.6655 C.3     1  UNL1        0.0790
     20 C          -5.6597    1.0410    0.3238 C.ar    1  UNL1        0.1618
     21 O          -6.6252    1.3176    1.2828 O.3     1  UNL1       -0.4914
     22 C          -6.4089    1.1962    2.6756 C.3     1  UNL1        0.0790
     23 C          -4.3754    0.6129    0.6847 C.ar    1  UNL1       -0.0108
     24 C          -3.4428    0.3478   -0.2962 C.ar    1  UNL1       -0.0156
     25 C          -2.0801   -0.1111    0.1321 C.3     1  UNL1        0.0796
     26 C          -2.1789   -1.2723    1.0258 C.ar    1  UNL1       -0.0042
     27 C          -1.7152   -1.1528    2.3468 C.ar    1  UNL1       -0.0551
     28 C          -1.7807   -2.2204    3.2136 C.ar    1  UNL1       -0.0613
     29 C          -2.3052   -3.4232    2.7919 C.ar    1  UNL1       -0.0604
     30 C          -2.7579   -3.5270    1.4945 C.ar    1  UNL1       -0.0431
     31 C          -2.7001   -2.4524    0.5988 C.ar    1  UNL1        0.0462
     32 CL         -3.3438   -2.6833   -0.9719 Cl      1  UNL1       -0.0832
     33 C           5.2937    0.1993   -0.8233 C.ar    1  UNL1       -0.0131
     34 C           6.6258    0.5231   -0.6975 C.ar    1  UNL1        0.1617
     35 O           7.3042    1.0910   -1.7692 O.3     1  UNL1       -0.4914
     36 C           6.6274    1.3352   -2.9862 C.3     1  UNL1        0.0790
     37 H           9.2496   -0.7770    2.0689 H       1  UNL1        0.0660
     38 H           8.6805    0.8028    2.6901 H       1  UNL1        0.0660
     39 H          10.3091    0.6352    1.8423 H       1  UNL1        0.0660
     40 H           7.0397   -0.4992    2.5075 H       1  UNL1        0.0655
     41 H           4.6812   -1.0573    2.2423 H       1  UNL1        0.0621
     42 H           2.9860   -0.9253   -0.9823 H       1  UNL1        0.0328
     43 H           2.9752   -1.6069    0.7258 H       1  UNL1        0.0328
     44 H           2.6634    0.7399    1.5273 H       1  UNL1        0.0466
     45 H           2.7009    1.3347   -0.1342 H       1  UNL1        0.0466
     46 H           0.3868    0.4270    1.2854 H       1  UNL1        0.1502
     47 H          -1.4247   -1.4369   -2.6429 H       1  UNL1        0.0468
     48 H          -0.7863    0.1531   -2.9860 H       1  UNL1        0.0468
     49 H          -3.3146   -0.4223   -3.4894 H       1  UNL1        0.0328
     50 H          -2.7255    1.2326   -3.2530 H       1  UNL1        0.0328
     51 H          -5.3752    1.0718   -3.0058 H       1  UNL1        0.0658
     52 H          -8.6735    2.1096   -2.8206 H       1  UNL1        0.0660
     53 H          -7.4689    0.8062   -3.1981 H       1  UNL1        0.0660
     54 H          -6.8945    2.4898   -3.1036 H       1  UNL1        0.0660
     55 H          -6.0885    2.1959    3.0757 H       1  UNL1        0.0660
     56 H          -5.7292    0.3925    2.9574 H       1  UNL1        0.0660
     57 H          -7.3994    1.0045    3.1379 H       1  UNL1        0.0660
     58 H          -4.1104    0.4890    1.7258 H       1  UNL1        0.0659
     59 H          -1.6922    0.7477    0.8037 H       1  UNL1        0.0602
     60 H          -1.3111   -0.2036    2.7026 H       1  UNL1        0.0621
     61 H          -1.4108   -2.0735    4.2132 H       1  UNL1        0.0618
     62 H          -2.3470   -4.2555    3.4946 H       1  UNL1        0.0618
     63 H          -3.1656   -4.4688    1.1736 H       1  UNL1        0.0632
     64 H           4.7431    0.3777   -1.7556 H       1  UNL1        0.0658
     65 H           6.2548    0.3768   -3.4393 H       1  UNL1        0.0660
     66 H           5.7215    1.9330   -2.7619 H       1  UNL1        0.0660
     67 H           7.3029    1.8021   -3.7148 H       1  UNL1        0.0660
@<TRIPOS>BOND
     1     1     2    1
     2     2     3    1
     3     3     4   ar
     4     4     5   ar
     5     5     6   ar
     6     6     7    1
     7     7     8    1
     8     8     9    1
     9     9    10   am
    10    10    11    2
    11    10    12   am
    12    12    13    1
    13    13    14    1
    14    14    15    1
    15    15    16   ar
    16    16    17   ar
    17    17    18    1
    18    18    19    1
    19    17    20   ar
    20    20    21    1
    21    21    22    1
    22    20    23   ar
    23    23    24   ar
    24    24    25    1
    25    25    26    1
    26    26    27   ar
    27    27    28   ar
    28    28    29   ar
    29    29    30   ar
    30    30    31   ar
    31    31    32    1
    32     6    33   ar
    33    33    34   ar
    34    34    35    1
    35    35    36    1
    36    34     3   ar
    37    25    12    1
    38    31    26   ar
    39    24    15   ar
    40     1    37    1
    41     1    38    1
    42     1    39    1
    43     4    40    1
    44     5    41    1
    45     7    42    1
    46     7    43    1
    47     8    44    1
    48     8    45    1
    49     9    46    1
    50    13    47    1
    51    13    48    1
    52    14    49    1
    53    14    50    1
    54    16    51    1
    55    19    52    1
    56    19    53    1
    57    19    54    1
    58    22    55    1
    59    22    56    1
    60    22    57    1
    61    23    58    1
    62    25    59    1
    63    27    60    1
    64    28    61    1
    65    29    62    1
    66    30    63    1
    67    33    64    1
    68    36    65    1
    69    36    66    1
    70    36    67    1
@<TRIPOS>MOLECULE
50333144
 43 45 0 0 0
SMALL
GASTEIGER

@<TRIPOS>ATOM
      1 C           6.2500    1.6160    0.7454 C.3     1  UNL1        0.0736
      2 S           6.6277    0.3024   -0.4065 S.O2    1  UNL1        0.0403
      3 O           7.5666    0.7831   -1.4693 O.2     1  UNL1       -0.1555
      4 O           7.2664   -0.8459    0.3173 O.2     1  UNL1       -0.1555
      5 N           5.1228   -0.1919   -1.0994 N.pl3   1  UNL1       -0.2208
      6 C           4.0661   -0.7267   -0.3339 C.ar    1  UNL1        0.0494
      7 C           4.2804   -1.6866    0.6244 C.ar    1  UNL1       -0.0392
      8 C           3.2508   -2.2100    1.3714 C.ar    1  UNL1       -0.0582
      9 C           1.9881   -1.7344    1.1231 C.ar    1  UNL1       -0.0401
     10 C           1.7123   -0.7578    0.1594 C.ar    1  UNL1        0.0399
     11 N           0.3427   -0.3368   -0.0260 N.am    1  UNL1       -0.2514
     12 C          -0.6367   -1.0502    0.7551 C.3     1  UNL1        0.0414
     13 C          -2.0258   -0.6676    0.5334 C.2     1  UNL1       -0.0445
     14 C          -2.4520    0.2690   -0.2742 C.2     1  UNL1        0.0397
     15 C          -3.8759    0.5583   -0.4065 C.ar    1  UNL1        0.0024
     16 C          -4.3296    1.5576   -1.2670 C.ar    1  UNL1       -0.0524
     17 C          -5.6649    1.8678   -1.4263 C.ar    1  UNL1       -0.0547
     18 C          -6.5966    1.1660   -0.7092 C.ar    1  UNL1        0.0156
     19 C          -6.2076    0.1695    0.1546 C.ar    1  UNL1        0.2738
     20 N          -7.1526   -0.5648    0.9023 N.pl3   1  UNL1        0.0796
     21 O          -6.7943   -1.4569    1.6748 O.2     1  UNL1        0.0414
     22 O          -8.4775   -0.2767    0.7619 O.co2   1  UNL1       -0.5760
     23 C          -4.8520   -0.1095    0.2840 C.ar    1  UNL1        0.0245
     24 N          -1.4788    0.9828   -1.0258 N.am    1  UNL1       -0.2687
     25 C          -0.0808    0.6639   -0.8857 C.2     1  UNL1        0.3110
     26 O           0.7631    1.3220   -1.5689 O.2     1  UNL1       -0.2519
     27 C           2.7724   -0.2719   -0.5547 C.ar    1  UNL1       -0.0178
     28 H           5.9754    2.5187    0.1802 H       1  UNL1        0.0482
     29 H           5.3214    1.2936    1.2854 H       1  UNL1        0.0482
     30 H           7.1160    1.7312    1.4065 H       1  UNL1        0.0482
     31 H           5.0115   -0.0798   -2.1416 H       1  UNL1        0.1733
     32 H           5.3079   -2.0207    0.7705 H       1  UNL1        0.0636
     33 H           3.4443   -2.9514    2.1060 H       1  UNL1        0.0619
     34 H           1.1783   -2.1379    1.7043 H       1  UNL1        0.0636
     35 H          -0.5097   -2.1508    0.5720 H       1  UNL1        0.0513
     36 H          -0.4050   -0.8088    1.8219 H       1  UNL1        0.0513
     37 H          -2.7972   -1.2244    1.1033 H       1  UNL1        0.0606
     38 H          -3.6475    2.1381   -1.8521 H       1  UNL1        0.0624
     39 H          -5.9941    2.6529   -2.1050 H       1  UNL1        0.0620
     40 H          -7.6659    1.3707   -0.7974 H       1  UNL1        0.0685
     41 H          -4.6301   -0.9033    0.9801 H       1  UNL1        0.0692
     42 H          -1.7380    1.7389   -1.6840 H       1  UNL1        0.1564
     43 H           2.6483    0.4625   -1.3031 H       1  UNL1        0.0655
@<TRIPOS>UNITY_ATOM_ATTR
20 1
charge 1
22 1
charge -1
@<TRIPOS>BOND
     1     1     2    1
     2     2     3    2
     3     2     4    2
     4     2     5    1
     5     5     6    1
     6     6     7   ar
     7     7     8   ar
     8     8     9   ar
     9     9    10   ar
    10    10    11    1
    11    11    12    1
    12    12    13    1
    13    13    14    2
    14    14    15    1
    15    15    16   ar
    16    16    17   ar
    17    17    18   ar
    18    18    19   ar
    19    19    20    1
    20    20    21    2
    21    20    22    1
    22    19    23   ar
    23    14    24    1
    24    24    25   am
    25    25    26    2
    26    10    27   ar
    27    27     6   ar
    28    25    11   am
    29    23    15   ar
    30     1    28    1
    31     1    29    1
    32     1    30    1
    33     5    31    1
    34     7    32    1
    35     8    33    1
    36     9    34    1
    37    12    35    1
    38    12    36    1
    39    13    37    1
    40    16    38    1
    41    17    39    1
    42    18    40    1
    43    23    41    1
    44    24    42    1
    45    27    43    1
@<TRIPOS>MOLECULE
51324119
 67 70 0 0 0
SMALL
GASTEIGER

@<TRIPOS>ATOM
      1 C           6.8688   -1.4128    1.5789 C.3     1  UNL1        0.0790
      2 O           6.8208   -1.2311    0.1708 O.3     1  UNL1       -0.4915
      3 C           5.6931   -0.6200   -0.3906 C.ar    1  UNL1        0.1615
      4 C           4.6414   -0.1949    0.3707 C.ar    1  UNL1       -0.0160
      5 C           3.5425    0.4069   -0.2318 C.ar    1  UNL1       -0.0548
      6 C           3.4631    0.5981   -1.5858 C.ar    1  UNL1       -0.0422
      7 C           2.3100    1.2281   -2.2288 C.3     1  UNL1       -0.0119
      8 C           1.2427    0.2824   -2.6488 C.3     1  UNL1        0.0170
      9 N           0.6117   -0.4681   -1.6002 N.am    1  UNL1       -0.2989
     10 C          -0.1280    0.1894   -0.5549 C.2     1  UNL1        0.3030
     11 O          -0.1493    1.4654   -0.6647 O.2     1  UNL1       -0.2526
     12 N          -0.7444   -0.5390    0.4542 N.am    1  UNL1       -0.2743
     13 C          -0.6924   -2.0128    0.4050 C.3     1  UNL1        0.0210
     14 C          -1.9806   -2.5855    0.9944 C.3     1  UNL1       -0.0113
     15 C          -3.1300   -1.6441    0.7383 C.ar    1  UNL1       -0.0369
     16 C          -4.3067   -2.0432    0.2076 C.ar    1  UNL1       -0.0127
     17 C          -5.3222   -1.1497   -0.0892 C.ar    1  UNL1        0.1618
     18 O          -6.5393   -1.5442   -0.6344 O.3     1  UNL1       -0.4914
     19 C          -6.7424   -2.9239   -0.8943 C.3     1  UNL1        0.0790
     20 C          -5.0721    0.1754    0.1838 C.ar    1  UNL1        0.1618
     21 O          -6.0571    1.0995   -0.0982 O.3     1  UNL1       -0.4914
     22 C          -5.9233    2.4835    0.1350 C.3     1  UNL1        0.0790
     23 C          -3.8608    0.6186    0.7346 C.ar    1  UNL1       -0.0108
     24 C          -2.9098   -0.2761    1.0091 C.ar    1  UNL1       -0.0157
     25 C          -1.5333   -0.0636    1.5776 C.3     1  UNL1        0.0783
     26 C          -1.2874    1.2070    2.1710 C.ar    1  UNL1       -0.0225
     27 C          -2.3186    1.8620    2.8146 C.ar    1  UNL1       -0.0554
     28 C          -2.1145    3.1006    3.3937 C.ar    1  UNL1       -0.0474
     29 C          -0.8597    3.6672    3.3183 C.ar    1  UNL1        0.0179
     30 BR         -0.5705    5.3836    4.1177 Br      1  UNL1       -0.0503
     31 C           0.1774    3.0205    2.6819 C.ar    1  UNL1       -0.0474
     32 C          -0.0202    1.8022    2.1110 C.ar    1  UNL1       -0.0554
     33 C           4.5393    0.1599   -2.3374 C.ar    1  UNL1       -0.0131
     34 C           5.6268   -0.4337   -1.7585 C.ar    1  UNL1        0.1617
     35 O           6.7069   -0.8727   -2.5202 O.3     1  UNL1       -0.4914
     36 C           6.7052   -0.7139   -3.9230 C.3     1  UNL1        0.0790
     37 H           6.8401   -0.4280    2.0978 H       1  UNL1        0.0660
     38 H           5.9522   -1.9853    1.8778 H       1  UNL1        0.0660
     39 H           7.8017   -1.9418    1.8400 H       1  UNL1        0.0660
     40 H           4.6598   -0.3244    1.4416 H       1  UNL1        0.0655
     41 H           2.7275    0.7340    0.3926 H       1  UNL1        0.0621
     42 H           2.6636    1.7444   -3.1689 H       1  UNL1        0.0328
     43 H           1.9006    2.0581   -1.6037 H       1  UNL1        0.0328
     44 H           1.6301   -0.3810   -3.4500 H       1  UNL1        0.0466
     45 H           0.4530    0.9016   -3.1728 H       1  UNL1        0.0466
     46 H           0.7169   -1.4920   -1.6236 H       1  UNL1        0.1502
     47 H           0.1500   -2.4287    0.9640 H       1  UNL1        0.0468
     48 H          -0.6593   -2.3896   -0.6276 H       1  UNL1        0.0468
     49 H          -2.1862   -3.5520    0.4604 H       1  UNL1        0.0328
     50 H          -1.9157   -2.7442    2.0677 H       1  UNL1        0.0328
     51 H          -4.4924   -3.0892   -0.0043 H       1  UNL1        0.0658
     52 H          -7.6365   -3.0664   -1.5661 H       1  UNL1        0.0660
     53 H          -5.8772   -3.3354   -1.4831 H       1  UNL1        0.0660
     54 H          -6.9380   -3.5089    0.0196 H       1  UNL1        0.0660
     55 H          -5.8464    2.7197    1.2038 H       1  UNL1        0.0660
     56 H          -5.0552    2.8430   -0.4513 H       1  UNL1        0.0660
     57 H          -6.8575    2.9615   -0.2742 H       1  UNL1        0.0660
     58 H          -3.7179    1.6932    0.8739 H       1  UNL1        0.0659
     59 H          -1.4325   -0.8874    2.3859 H       1  UNL1        0.0601
     60 H          -3.3214    1.4019    2.9455 H       1  UNL1        0.0621
     61 H          -2.9409    3.5885    3.8877 H       1  UNL1        0.0629
     62 H           1.1752    3.4607    2.6177 H       1  UNL1        0.0629
     63 H           0.8112    1.2466    1.6394 H       1  UNL1        0.0621
     64 H           4.5245    0.2899   -3.4223 H       1  UNL1        0.0658
     65 H           6.9246    0.3245   -4.2114 H       1  UNL1        0.0660
     66 H           5.7290   -1.0874   -4.3181 H       1  UNL1        0.0660
     67 H           7.5299   -1.3467   -4.3457 H       1  UNL1        0.0660
@<TRIPOS>BOND
     1     1     2    1
     2     2     3    1
     3     3     4   ar
     4     4     5   ar
     5     5     6   ar
     6     6     7    1
     7     7     8    1
     8     8     9    1
     9     9    10   am
    10    10    11    2
    11    10    12   am
    12    12    13    1
    13    13    14    1
    14    14    15    1
    15    15    16   ar
    16    16    17   ar
    17    17    18    1
    18    18    19    1
    19    17    20   ar
    20    20    21    1
    21    21    22    1
    22    20    23   ar
    23    23    24   ar
    24    24    25    1
    25    25    26    1
    26    26    27   ar
    27    27    28   ar
    28    28    29   ar
    29    29    30    1
    30    29    31   ar
    31    31    32   ar
    32     6    33   ar
    33    33    34   ar
    34    34    35    1
    35    35    36    1
    36    34     3   ar
    37    25    12    1
    38    32    26   ar
    39    24    15   ar
    40     1    37    1
    41     1    38    1
    42     1    39    1
    43     4    40    1
    44     5    41    1
    45     7    42    1
    46     7    43    1
    47     8    44    1
    48     8    45    1
    49     9    46    1
    50    13    47    1
    51    13    48    1
    52    14    49    1
    53    14    50    1
    54    16    51    1
    55    19    52    1
    56    19    53    1
    57    19    54    1
    58    22    55    1
    59    22    56    1
    60    22    57    1
    61    23    58    1
    62    25    59    1
    63    27    60    1
    64    28    61    1
    65    31    62    1
    66    32    63    1
    67    33    64    1
    68    36    65    1
    69    36    66    1
    70    36    67    1
@<TRIPOS>MOLECULE
51028012
 51 53 0 0 0
SMALL
GASTEIGER

@<TRIPOS>ATOM
      1 C          -4.7841    0.6333    3.9467 C.3     1  UNL1       -0.0397
      2 C          -4.4854    0.4195    2.5060 C.ar    1  UNL1       -0.0487
      3 C          -5.1394    1.1159    1.5109 C.ar    1  UNL1       -0.0585
      4 C          -4.8576    0.9122    0.1756 C.ar    1  UNL1       -0.0563
      5 C          -3.8962   -0.0100   -0.2213 C.ar    1  UNL1       -0.0236
      6 C          -3.5993   -0.2230   -1.6617 C.3     1  UNL1       -0.0198
      7 C          -2.5019    0.7409   -2.0508 C.3     1  UNL1       -0.0586
      8 C          -4.8126    0.0356   -2.5277 C.3     1  UNL1       -0.0586
      9 C          -3.2473   -0.7019    0.7820 C.ar    1  UNL1        0.0371
     10 N          -2.2479   -1.6624    0.3845 N.am    1  UNL1       -0.2850
     11 C          -0.8973   -1.2428    0.2428 C.2     1  UNL1        0.2215
     12 O          -0.6045   -0.0347    0.4689 O.2     1  UNL1       -0.2751
     13 C           0.1666   -2.2237   -0.1705 C.3     1  UNL1        0.0494
     14 C           1.4674   -1.5183   -0.2382 C.ar    1  UNL1       -0.0386
     15 C           1.9343   -0.9082   -1.3799 C.ar    1  UNL1       -0.0575
     16 C           3.1508   -0.2566   -1.4180 C.ar    1  UNL1       -0.0538
     17 C           3.9514   -0.1911   -0.3058 C.ar    1  UNL1       -0.0179
     18 C           5.2471    0.4867   -0.2975 C.ar    1  UNL1       -0.0179
     19 C           5.5304    1.5857   -1.0615 C.ar    1  UNL1       -0.0540
     20 C           6.7695    2.2124   -1.0367 C.ar    1  UNL1       -0.0612
     21 C           7.7453    1.7015   -0.2082 C.ar    1  UNL1       -0.0617
     22 C           7.4750    0.5974    0.5656 C.ar    1  UNL1       -0.0612
     23 C           6.2393   -0.0104    0.5270 C.ar    1  UNL1       -0.0540
     24 C           3.5010   -0.7975    0.8517 C.ar    1  UNL1       -0.0538
     25 C           2.2882   -1.4438    0.8791 C.ar    1  UNL1       -0.0575
     26 C          -3.5285   -0.4994    2.1293 C.ar    1  UNL1       -0.0373
     27 H          -5.7304    0.0805    4.1877 H       1  UNL1        0.0278
     28 H          -5.0128    1.7127    4.0620 H       1  UNL1        0.0278
     29 H          -3.9479    0.3679    4.5951 H       1  UNL1        0.0278
     30 H          -5.8929    1.8406    1.7837 H       1  UNL1        0.0620
     31 H          -5.3990    1.4856   -0.5900 H       1  UNL1        0.0621
     32 H          -3.2796   -1.2490   -1.8252 H       1  UNL1        0.0344
     33 H          -2.2150    1.4178   -1.2212 H       1  UNL1        0.0235
     34 H          -1.6579    0.1442   -2.4429 H       1  UNL1        0.0235
     35 H          -2.8372    1.3733   -2.9250 H       1  UNL1        0.0235
     36 H          -4.8592   -0.6821   -3.3906 H       1  UNL1        0.0235
     37 H          -4.7081    1.0427   -2.9957 H       1  UNL1        0.0235
     38 H          -5.7608    0.0208   -1.9666 H       1  UNL1        0.0235
     39 H          -2.4985   -2.6659    0.1977 H       1  UNL1        0.1548
     40 H           0.2686   -2.9988    0.6251 H       1  UNL1        0.0407
     41 H          -0.0597   -2.7099   -1.1199 H       1  UNL1        0.0407
     42 H           1.3366   -0.9380   -2.2696 H       1  UNL1        0.0621
     43 H           3.5042    0.2210   -2.3313 H       1  UNL1        0.0624
     44 H           4.7569    1.9769   -1.7074 H       1  UNL1        0.0624
     45 H           6.9638    3.0670   -1.6422 H       1  UNL1        0.0618
     46 H           8.6971    2.2124   -0.2129 H       1  UNL1        0.0618
     47 H           8.2875    0.2311    1.2079 H       1  UNL1        0.0618
     48 H           6.1022   -0.8773    1.1667 H       1  UNL1        0.0624
     49 H           4.0928   -0.7814    1.7757 H       1  UNL1        0.0624
     50 H           1.9473   -1.9143    1.7910 H       1  UNL1        0.0621
     51 H          -2.9623   -1.0950    2.8581 H       1  UNL1        0.0639
@<TRIPOS>BOND
     1     1     2    1
     2     2     3   ar
     3     3     4   ar
     4     4     5   ar
     5     5     6    1
     6     6     7    1
     7     6     8    1
     8     5     9   ar
     9     9    10    1
    10    10    11   am
    11    11    12    2
    12    11    13    1
    13    13    14    1
    14    14    15   ar
    15    15    16   ar
    16    16    17   ar
    17    17    18    1
    18    18    19   ar
    19    19    20   ar
    20    20    21   ar
    21    21    22   ar
    22    22    23   ar
    23    17    24   ar
    24    24    25   ar
    25     9    26   ar
    26    26     2   ar
    27    25    14   ar
    28    23    18   ar
    29     1    27    1
    30     1    28    1
    31     1    29    1
    32     3    30    1
    33     4    31    1
    34     6    32    1
    35     7    33    1
    36     7    34    1
    37     7    35    1
    38     8    36    1
    39     8    37    1
    40     8    38    1
    41    10    39    1
    42    13    40    1
    43    13    41    1
    44    15    42    1
    45    16    43    1
    46    19    44    1
    47    20    45    1
    48    21    46    1
    49    22    47    1
    50    23    48    1
    51    24    49    1
    52    25    50    1
    53    26    51    1
@<TRIPOS>MOLECULE
51028029
 49 50 0 0 0
SMALL
GASTEIGER

@<TRIPOS>ATOM
      1 C          -4.9699    2.2480    3.2406 C.3     1  UNL1       -0.0396
      2 C          -4.4786    1.5881    2.0033 C.ar    1  UNL1       -0.0470
      3 C          -5.3851    1.1643    1.0717 C.ar    1  UNL1       -0.0583
      4 C          -4.9478    0.5463   -0.0896 C.ar    1  UNL1       -0.0546
      5 C          -3.5749    0.3632   -0.2940 C.ar    1  UNL1       -0.0024
      6 C          -3.0447   -0.2891   -1.5119 C.3     1  UNL1       -0.0180
      7 C          -2.7664    0.6919   -2.6194 C.3     1  UNL1       -0.0585
      8 C          -3.9579   -1.4060   -1.9485 C.3     1  UNL1       -0.0585
      9 C          -2.6703    0.7954    0.6540 C.ar    1  UNL1        0.1356
     10 O          -1.3152    0.6152    0.4533 O.3     1  UNL1       -0.4221
     11 C          -0.5948   -0.4794    0.8442 C.2     1  UNL1        0.3444
     12 O          -1.1896   -1.4031    1.4318 O.2     1  UNL1       -0.2445
     13 C           0.8408   -0.5261    0.5599 C.ar    1  UNL1        0.0594
     14 C           1.4546    0.5355   -0.1004 C.ar    1  UNL1       -0.0475
     15 C           2.7906    0.5421   -0.3899 C.ar    1  UNL1       -0.0573
     16 C           3.5721   -0.5285   -0.0241 C.ar    1  UNL1       -0.0419
     17 C           5.0343   -0.6053   -0.2991 C.3     1  UNL1       -0.0127
     18 C           5.5001    0.6326   -1.0154 C.3     1  UNL1       -0.0560
     19 C           5.7814   -0.6909    1.0061 C.3     1  UNL1       -0.0560
     20 C           5.3173   -1.8078   -1.1763 C.3     1  UNL1       -0.0560
     21 C           2.9646   -1.6004    0.6400 C.ar    1  UNL1       -0.0573
     22 C           1.6183   -1.6097    0.9330 C.ar    1  UNL1       -0.0475
     23 C          -3.1106    1.4098    1.8077 C.ar    1  UNL1       -0.0160
     24 H          -4.1407    2.6566    3.8480 H       1  UNL1        0.0278
     25 H          -5.6115    1.5799    3.8394 H       1  UNL1        0.0278
     26 H          -5.6385    3.0978    2.9171 H       1  UNL1        0.0278
     27 H          -6.4684    1.2883    1.1927 H       1  UNL1        0.0620
     28 H          -5.6440    0.2011   -0.8438 H       1  UNL1        0.0622
     29 H          -2.0567   -0.7762   -1.2681 H       1  UNL1        0.0345
     30 H          -2.5724    0.0867   -3.5440 H       1  UNL1        0.0235
     31 H          -1.8415    1.2556   -2.3603 H       1  UNL1        0.0235
     32 H          -3.6290    1.3520   -2.8079 H       1  UNL1        0.0235
     33 H          -4.4841   -1.7786   -1.0422 H       1  UNL1        0.0235
     34 H          -3.3691   -2.1622   -2.4683 H       1  UNL1        0.0235
     35 H          -4.6666   -0.9769   -2.6955 H       1  UNL1        0.0235
     36 H           0.8148    1.3620   -0.3750 H       1  UNL1        0.0626
     37 H           3.2273    1.3742   -0.8979 H       1  UNL1        0.0621
     38 H           5.2429    1.5271   -0.4217 H       1  UNL1        0.0238
     39 H           5.0398    0.6290   -2.0195 H       1  UNL1        0.0238
     40 H           6.6184    0.5834   -1.0617 H       1  UNL1        0.0238
     41 H           5.1238   -0.2783    1.7983 H       1  UNL1        0.0238
     42 H           6.6919   -0.0481    1.0058 H       1  UNL1        0.0238
     43 H           6.0344   -1.7363    1.2785 H       1  UNL1        0.0238
     44 H           6.3441   -1.7875   -1.5698 H       1  UNL1        0.0238
     45 H           5.1878   -2.7246   -0.5726 H       1  UNL1        0.0238
     46 H           4.5794   -1.7871   -2.0097 H       1  UNL1        0.0238
     47 H           3.5971   -2.4303    0.9178 H       1  UNL1        0.0621
     48 H           1.1363   -2.4338    1.4467 H       1  UNL1        0.0626
     49 H          -2.3837    1.7403    2.5366 H       1  UNL1        0.0657
@<TRIPOS>BOND
     1     1     2    1
     2     2     3   ar
     3     3     4   ar
     4     4     5   ar
     5     5     6    1
     6     6     7    1
     7     6     8    1
     8     5     9   ar
     9     9    10    1
    10    10    11    1
    11    11    12    2
    12    11    13    1
    13    13    14   ar
    14    14    15   ar
    15    15    16   ar
    16    16    17    1
    17    17    18    1
    18    17    19    1
    19    17    20    1
    20    16    21   ar
    21    21    22   ar
    22     9    23   ar
    23    23     2   ar
    24    22    13   ar
    25     1    24    1
    26     1    25    1
    27     1    26    1
    28     3    27    1
    29     4    28    1
    30     6    29    1
    31     7    30    1
    32     7    31    1
    33     7    32    1
    34     8    33    1
    35     8    34    1
    36     8    35    1
    37    14    36    1
    38    15    37    1
    39    18    38    1
    40    18    39    1
    41    18    40    1
    42    19    41    1
    43    19    42    1
    44    19    43    1
    45    20    44    1
    46    20    45    1
    47    20    46    1
    48    21    47    1
    49    22    48    1
    50    23    49    1
@<TRIPOS>MOLECULE
51324163
 63 65 0 0 0
SMALL
GASTEIGER

@<TRIPOS>ATOM
      1 C          -2.6579   -1.7138    3.0535 C.3     1  UNL1       -0.0633
      2 C          -1.8718   -1.8183    1.7861 C.3     1  UNL1       -0.0329
      3 C          -2.0645   -0.7005    0.8162 C.3     1  UNL1        0.0527
      4 C          -3.4621   -0.5493    0.3681 C.ar    1  UNL1       -0.0201
      5 C          -3.9768   -1.4115   -0.6127 C.ar    1  UNL1       -0.0111
      6 C          -5.2832   -1.2456   -1.0094 C.ar    1  UNL1        0.1618
      7 O          -5.8199   -2.0665   -1.9627 O.3     1  UNL1       -0.4914
      8 C          -5.0659   -3.0996   -2.5668 C.3     1  UNL1        0.0790
      9 C          -6.0408   -0.2472   -0.4377 C.ar    1  UNL1        0.1618
     10 O          -7.3549   -0.1210   -0.8730 O.3     1  UNL1       -0.4914
     11 C          -8.1835    0.8852   -0.3238 C.3     1  UNL1        0.0790
     12 C          -5.5543    0.6061    0.5235 C.ar    1  UNL1       -0.0128
     13 C          -4.2290    0.4423    0.9301 C.ar    1  UNL1       -0.0373
     14 C          -3.6249    1.3125    1.9567 C.3     1  UNL1       -0.0113
     15 C          -2.1949    1.6370    1.6596 C.3     1  UNL1        0.0207
     16 N          -1.4075    0.5342    1.1573 N.am    1  UNL1       -0.2783
     17 C           0.0188    0.6822    1.0033 C.2     1  UNL1        0.3027
     18 O           0.5811    1.7760    1.3230 O.2     1  UNL1       -0.2526
     19 N           0.8729   -0.3316    0.5052 N.am    1  UNL1       -0.2989
     20 C           2.3070   -0.1387    0.3680 C.3     1  UNL1        0.0170
     21 C           2.6758    0.9776   -0.5441 C.3     1  UNL1       -0.0119
     22 C           4.1802    1.0349   -0.5695 C.ar    1  UNL1       -0.0422
     23 C           4.8707    1.8185    0.3396 C.ar    1  UNL1       -0.0548
     24 C           6.2677    1.8464    0.2852 C.ar    1  UNL1       -0.0160
     25 C           6.9562    1.1110   -0.6524 C.ar    1  UNL1        0.1615
     26 O           8.3355    1.1754   -0.6612 O.3     1  UNL1       -0.4915
     27 C           9.0564    1.9726    0.2621 C.3     1  UNL1        0.0790
     28 C           6.2661    0.3415   -1.5442 C.ar    1  UNL1        0.1617
     29 O           6.9606   -0.3927   -2.4807 O.3     1  UNL1       -0.4914
     30 C           6.3826   -1.2210   -3.4512 C.3     1  UNL1        0.0790
     31 C           4.8689    0.2973   -1.5098 C.ar    1  UNL1       -0.0131
     32 H          -2.7241   -2.6587    3.6098 H       1  UNL1        0.0230
     33 H          -3.7217   -1.4720    2.7668 H       1  UNL1        0.0230
     34 H          -2.3275   -0.9264    3.7265 H       1  UNL1        0.0230
     35 H          -2.1478   -2.7673    1.2415 H       1  UNL1        0.0284
     36 H          -0.8130   -1.9731    2.0755 H       1  UNL1        0.0284
     37 H          -1.5130   -1.0448   -0.1285 H       1  UNL1        0.0551
     38 H          -3.3327   -2.1718   -1.0201 H       1  UNL1        0.0659
     39 H          -4.4335   -2.6921   -3.3901 H       1  UNL1        0.0660
     40 H          -4.4640   -3.6580   -1.8405 H       1  UNL1        0.0660
     41 H          -5.7551   -3.8444   -3.0533 H       1  UNL1        0.0660
     42 H          -8.1158    0.9395    0.7779 H       1  UNL1        0.0660
     43 H          -7.9043    1.8973   -0.6994 H       1  UNL1        0.0660
     44 H          -9.2468    0.6420   -0.5749 H       1  UNL1        0.0660
     45 H          -6.1291    1.3894    0.9803 H       1  UNL1        0.0658
     46 H          -3.7675    0.9109    3.0012 H       1  UNL1        0.0328
     47 H          -4.1595    2.3126    1.9731 H       1  UNL1        0.0328
     48 H          -2.2162    2.4325    0.8567 H       1  UNL1        0.0468
     49 H          -1.7268    2.1135    2.5484 H       1  UNL1        0.0468
     50 H           0.4559   -1.2453    0.2243 H       1  UNL1        0.1502
     51 H           2.7945    0.0397    1.3478 H       1  UNL1        0.0466
     52 H           2.7363   -1.0800   -0.0242 H       1  UNL1        0.0466
     53 H           2.3526    1.9679   -0.1834 H       1  UNL1        0.0328
     54 H           2.3560    0.7846   -1.5864 H       1  UNL1        0.0328
     55 H           4.3207    2.3987    1.0796 H       1  UNL1        0.0621
     56 H           6.7957    2.4496    0.9854 H       1  UNL1        0.0655
     57 H           8.6417    3.0034    0.3203 H       1  UNL1        0.0660
     58 H           8.9520    1.5068    1.2614 H       1  UNL1        0.0660
     59 H          10.1142    2.0852   -0.0421 H       1  UNL1        0.0660
     60 H           5.6293   -1.8809   -2.9814 H       1  UNL1        0.0660
     61 H           7.1940   -1.8840   -3.8419 H       1  UNL1        0.0660
     62 H           5.9772   -0.6421   -4.3126 H       1  UNL1        0.0660
     63 H           4.3694   -0.3262   -2.2363 H       1  UNL1        0.0658
@<TRIPOS>BOND
     1     1     2    1
     2     2     3    1
     3     3     4    1
     4     4     5   ar
     5     5     6   ar
     6     6     7    1
     7     7     8    1
     8     6     9   ar
     9     9    10    1
    10    10    11    1
    11     9    12   ar
    12    12    13   ar
    13    13    14    1
    14    14    15    1
    15    15    16    1
    16    16    17   am
    17    17    18    2
    18    17    19   am
    19    19    20    1
    20    20    21    1
    21    21    22    1
    22    22    23   ar
    23    23    24   ar
    24    24    25   ar
    25    25    26    1
    26    26    27    1
    27    25    28   ar
    28    28    29    1
    29    29    30    1
    30    28    31   ar
    31    16     3    1
    32    31    22   ar
    33    13     4   ar
    34     1    32    1
    35     1    33    1
    36     1    34    1
    37     2    35    1
    38     2    36    1
    39     3    37    1
    40     5    38    1
    41     8    39    1
    42     8    40    1
    43     8    41    1
    44    11    42    1
    45    11    43    1
    46    11    44    1
    47    12    45    1
    48    14    46    1
    49    14    47    1
    50    15    48    1
    51    15    49    1
    52    19    50    1
    53    20    51    1
    54    20    52    1
    55    21    53    1
    56    21    54    1
    57    23    55    1
    58    24    56    1
    59    27    57    1
    60    27    58    1
    61    27    59    1
    62    30    60    1
    63    30    61    1
    64    30    62    1
    65    31    63    1
@<TRIPOS>MOLECULE
51324116
 66 68 0 0 0
SMALL
GASTEIGER

@<TRIPOS>ATOM
      1 C          -0.9949    3.6926    1.3803 C.3     1  UNL1       -0.0652
      2 C          -1.5921    3.3723    0.0411 C.3     1  UNL1       -0.0539
      3 C          -0.9502    2.1743   -0.5593 C.3     1  UNL1       -0.0303
      4 C          -1.1423    0.8676    0.1178 C.3     1  UNL1        0.0530
      5 C          -2.6097    0.5195    0.0898 C.ar    1  UNL1       -0.0201
      6 C          -3.1814    0.3360   -1.1605 C.ar    1  UNL1       -0.0111
      7 C          -4.5380    0.0201   -1.2507 C.ar    1  UNL1        0.1618
      8 O          -5.1498   -0.1681   -2.4801 O.3     1  UNL1       -0.4914
      9 C          -4.3529   -0.0177   -3.6410 C.3     1  UNL1        0.0790
     10 C          -5.3119   -0.1129   -0.1219 C.ar    1  UNL1        0.1618
     11 O          -6.6515   -0.4326   -0.2579 O.3     1  UNL1       -0.4914
     12 C          -7.4718   -0.5867    0.9101 C.3     1  UNL1        0.0790
     13 C          -4.7305    0.0725    1.1192 C.ar    1  UNL1       -0.0128
     14 C          -3.3625    0.3930    1.1981 C.ar    1  UNL1       -0.0373
     15 C          -2.7721    0.5879    2.5438 C.3     1  UNL1       -0.0113
     16 C          -1.3644    0.1380    2.5249 C.3     1  UNL1        0.0207
     17 N          -0.5655    0.6195    1.3808 N.am    1  UNL1       -0.2783
     18 C           0.7893    0.7764    1.6761 C.2     1  UNL1        0.3027
     19 O           1.1176    0.4955    2.9189 O.2     1  UNL1       -0.2526
     20 N           1.8717    1.1801    0.8950 N.am    1  UNL1       -0.2989
     21 C           3.2236    1.2942    1.4154 C.3     1  UNL1        0.0170
     22 C           3.8227   -0.0023    1.8405 C.3     1  UNL1       -0.0119
     23 C           3.9913   -0.9416    0.6994 C.ar    1  UNL1       -0.0422
     24 C           3.0095   -1.8160    0.3449 C.ar    1  UNL1       -0.0548
     25 C           3.1176   -2.6955   -0.7133 C.ar    1  UNL1       -0.0160
     26 C           4.2909   -2.6748   -1.4420 C.ar    1  UNL1        0.1615
     27 O           4.4170   -3.5598   -2.5196 O.3     1  UNL1       -0.4915
     28 C           3.3749   -4.4532   -2.8597 C.3     1  UNL1        0.0790
     29 C           5.3020   -1.8034   -1.1102 C.ar    1  UNL1        0.1617
     30 O           6.4630   -1.8153   -1.8635 O.3     1  UNL1       -0.4914
     31 C           7.5078   -0.9176   -1.4960 C.3     1  UNL1        0.0790
     32 C           5.1667   -0.9397   -0.0529 C.ar    1  UNL1       -0.0131
     33 H           0.1196    3.5782    1.3897 H       1  UNL1        0.0230
     34 H          -1.4484    3.0756    2.1550 H       1  UNL1        0.0230
     35 H          -1.2285    4.7619    1.6173 H       1  UNL1        0.0230
     36 H          -2.6965    3.2401    0.1702 H       1  UNL1        0.0263
     37 H          -1.4972    4.2697   -0.6160 H       1  UNL1        0.0263
     38 H           0.0799    2.3538   -0.8450 H       1  UNL1        0.0286
     39 H          -1.4721    2.0962   -1.6112 H       1  UNL1        0.0286
     40 H          -0.6947    0.0609   -0.5736 H       1  UNL1        0.0551
     41 H          -2.5670    0.4388   -2.0628 H       1  UNL1        0.0659
     42 H          -3.7931    0.9452   -3.6080 H       1  UNL1        0.0660
     43 H          -3.5279   -0.7904   -3.6783 H       1  UNL1        0.0660
     44 H          -4.9184   -0.1380   -4.5789 H       1  UNL1        0.0660
     45 H          -7.2428    0.2650    1.6006 H       1  UNL1        0.0660
     46 H          -8.5517   -0.4700    0.6839 H       1  UNL1        0.0660
     47 H          -7.2309   -1.5130    1.4455 H       1  UNL1        0.0660
     48 H          -5.3158   -0.0228    2.0163 H       1  UNL1        0.0658
     49 H          -2.9829    1.5681    2.9986 H       1  UNL1        0.0328
     50 H          -3.3245   -0.1495    3.2148 H       1  UNL1        0.0328
     51 H          -1.2832   -0.9765    2.5039 H       1  UNL1        0.0468
     52 H          -0.8591    0.5632    3.4388 H       1  UNL1        0.0468
     53 H           1.7219    1.3806   -0.0935 H       1  UNL1        0.1502
     54 H           3.1773    2.0340    2.2573 H       1  UNL1        0.0466
     55 H           3.8911    1.7713    0.6647 H       1  UNL1        0.0466
     56 H           4.8214    0.2029    2.2609 H       1  UNL1        0.0328
     57 H           3.1508   -0.5174    2.5487 H       1  UNL1        0.0328
     58 H           2.0455   -1.8808    0.8834 H       1  UNL1        0.0621
     59 H           2.3448   -3.4002   -0.9973 H       1  UNL1        0.0655
     60 H           2.4489   -3.9399   -3.1655 H       1  UNL1        0.0660
     61 H           3.6812   -5.0535   -3.7449 H       1  UNL1        0.0660
     62 H           3.1480   -5.0665   -1.9807 H       1  UNL1        0.0660
     63 H           7.8469   -1.2146   -0.4853 H       1  UNL1        0.0660
     64 H           7.1435    0.1165   -1.4228 H       1  UNL1        0.0660
     65 H           8.3437   -0.9651   -2.1998 H       1  UNL1        0.0660
     66 H           5.9461   -0.2261    0.2476 H       1  UNL1        0.0658
@<TRIPOS>BOND
     1     1     2    1
     2     2     3    1
     3     3     4    1
     4     4     5    1
     5     5     6   ar
     6     6     7   ar
     7     7     8    1
     8     8     9    1
     9     7    10   ar
    10    10    11    1
    11    11    12    1
    12    10    13   ar
    13    13    14   ar
    14    14    15    1
    15    15    16    1
    16    16    17    1
    17    17    18   am
    18    18    19    2
    19    18    20   am
    20    20    21    1
    21    21    22    1
    22    22    23    1
    23    23    24   ar
    24    24    25   ar
    25    25    26   ar
    26    26    27    1
    27    27    28    1
    28    26    29   ar
    29    29    30    1
    30    30    31    1
    31    29    32   ar
    32    17     4    1
    33    32    23   ar
    34    14     5   ar
    35     1    33    1
    36     1    34    1
    37     1    35    1
    38     2    36    1
    39     2    37    1
    40     3    38    1
    41     3    39    1
    42     4    40    1
    43     6    41    1
    44     9    42    1
    45     9    43    1
    46     9    44    1
    47    12    45    1
    48    12    46    1
    49    12    47    1
    50    13    48    1
    51    15    49    1
    52    15    50    1
    53    16    51    1
    54    16    52    1
    55    20    53    1
    56    21    54    1
    57    21    55    1
    58    22    56    1
    59    22    57    1
    60    24    58    1
    61    25    59    1
    62    28    60    1
    63    28    61    1
    64    28    62    1
    65    31    63    1
    66    31    64    1
    67    31    65    1
    68    32    66    1
@<TRIPOS>MOLECULE
51129921
 55 57 0 0 0
SMALL
GASTEIGER

@<TRIPOS>ATOM
      1 C           6.4741   -1.8669    0.8618 C.3     1  UNL1       -0.0653
      2 C           6.8114   -0.4376    0.5280 C.3     1  UNL1       -0.0559
      3 C           5.7221    0.5295    0.9332 C.3     1  UNL1       -0.0530
      4 C           4.4102    0.1891    0.2127 C.3     1  UNL1       -0.0491
      5 C           3.3997    1.2086    0.6868 C.3     1  UNL1       -0.0275
      6 C           2.0765    1.0291    0.0911 C.ar    1  UNL1       -0.0404
      7 C           1.7307    1.6594   -1.0942 C.ar    1  UNL1       -0.0165
      8 C           0.4659    1.4358   -1.5855 C.ar    1  UNL1        0.1239
      9 O           0.1342    2.0817   -2.7852 O.3     1  UNL1       -0.5064
     10 C          -0.4424    0.6238   -0.9482 C.ar    1  UNL1        0.0394
     11 C          -0.1061   -0.0057    0.2297 C.ar    1  UNL1        0.1284
     12 C           1.1647    0.2086    0.7390 C.ar    1  UNL1       -0.0162
     13 O          -1.2060   -0.7688    0.6667 O.3     1  UNL1       -0.4842
     14 C          -2.3563   -0.2647    0.0235 C.3     1  UNL1        0.1224
     15 C          -1.8131    0.2498   -1.2803 C.3     1  UNL1        0.0200
     16 C          -3.0635    0.7737    0.8358 C.3     1  UNL1       -0.0031
     17 C          -2.1231    1.7652    1.4717 C.3     1  UNL1       -0.0588
     18 C          -4.1160    1.4576    0.0207 C.3     1  UNL1       -0.0468
     19 C          -5.0646    0.4725   -0.5783 C.3     1  UNL1       -0.0521
     20 C          -4.4246   -0.7343   -1.1681 C.3     1  UNL1       -0.0442
     21 C          -3.3615   -1.3501   -0.3014 C.3     1  UNL1        0.0055
     22 C          -2.7270   -2.4758   -1.1004 C.3     1  UNL1       -0.0562
     23 C          -3.9438   -1.9449    0.9607 C.3     1  UNL1       -0.0562
     24 H           7.3859   -2.4116    1.2293 H       1  UNL1        0.0230
     25 H           5.6792   -1.9602    1.6113 H       1  UNL1        0.0230
     26 H           6.1424   -2.3615   -0.0644 H       1  UNL1        0.0230
     27 H           7.0011   -0.3110   -0.5559 H       1  UNL1        0.0263
     28 H           7.7112   -0.1678    1.1084 H       1  UNL1        0.0263
     29 H           5.5178    0.4221    2.0097 H       1  UNL1        0.0265
     30 H           6.0454    1.5370    0.6603 H       1  UNL1        0.0265
     31 H           4.5293    0.1511   -0.8702 H       1  UNL1        0.0268
     32 H           4.1496   -0.8318    0.5596 H       1  UNL1        0.0268
     33 H           3.3136    1.0780    1.7867 H       1  UNL1        0.0313
     34 H           3.7342    2.2346    0.5168 H       1  UNL1        0.0313
     35 H           2.4228    2.3025   -1.6169 H       1  UNL1        0.0657
     36 H           0.1308    1.5341   -3.6494 H       1  UNL1        0.2921
     37 H           1.4127   -0.2977    1.6715 H       1  UNL1        0.0657
     38 H          -2.4164    1.0109   -1.7623 H       1  UNL1        0.0354
     39 H          -1.7562   -0.6349   -1.9778 H       1  UNL1        0.0354
     40 H          -3.5814    0.2462    1.6696 H       1  UNL1        0.0337
     41 H          -2.7373    2.5147    2.0121 H       1  UNL1        0.0234
     42 H          -1.5228    1.2111    2.2489 H       1  UNL1        0.0234
     43 H          -1.4977    2.3063    0.7578 H       1  UNL1        0.0234
     44 H          -3.7079    2.1891   -0.7112 H       1  UNL1        0.0269
     45 H          -4.7174    2.0883    0.7412 H       1  UNL1        0.0269
     46 H          -5.6256    0.9942   -1.3909 H       1  UNL1        0.0266
     47 H          -5.8432    0.1604    0.1633 H       1  UNL1        0.0266
     48 H          -5.2309   -1.5172   -1.2766 H       1  UNL1        0.0272
     49 H          -4.0249   -0.5856   -2.1858 H       1  UNL1        0.0272
     50 H          -2.8951   -2.3166   -2.1825 H       1  UNL1        0.0236
     51 H          -3.2785   -3.4291   -0.8570 H       1  UNL1        0.0236
     52 H          -1.6662   -2.6366   -0.8377 H       1  UNL1        0.0236
     53 H          -3.1760   -1.9747    1.7609 H       1  UNL1        0.0236
     54 H          -4.2770   -2.9833    0.7248 H       1  UNL1        0.0236
     55 H          -4.8630   -1.3967    1.2875 H       1  UNL1        0.0236
@<TRIPOS>BOND
     1     1     2    1
     2     2     3    1
     3     3     4    1
     4     4     5    1
     5     5     6    1
     6     6     7   ar
     7     7     8   ar
     8     8     9    1
     9     8    10   ar
    10    10    11   ar
    11    11    12   ar
    12    11    13    1
    13    14    13    1
    14    14    15    1
    15    14    16    1
    16    16    17    1
    17    16    18    1
    18    18    19    1
    19    19    20    1
    20    20    21    1
    21    21    22    1
    22    21    23    1
    23    12     6   ar
    24    21    14    1
    25    15    10    1
    26     1    24    1
    27     1    25    1
    28     1    26    1
    29     2    27    1
    30     2    28    1
    31     3    29    1
    32     3    30    1
    33     4    31    1
    34     4    32    1
    35     5    33    1
    36     5    34    1
    37     7    35    1
    38     9    36    1
    39    12    37    1
    40    15    38    1
    41    15    39    1
    42    16    40    1
    43    17    41    1
    44    17    42    1
    45    17    43    1
    46    18    44    1
    47    18    45    1
    48    19    46    1
    49    19    47    1
    50    20    48    1
    51    20    49    1
    52    22    50    1
    53    22    51    1
    54    22    52    1
    55    23    53    1
    56    23    54    1
    57    23    55    1
@<TRIPOS>MOLECULE
51129908
 55 57 0 0 0
SMALL
GASTEIGER

@<TRIPOS>ATOM
      1 C           6.2740   -0.9811    1.8891 C.3     1  UNL1       -0.0653
      2 C           6.7052    0.0095    0.8399 C.3     1  UNL1       -0.0559
      3 C           5.6371    1.0508    0.5677 C.3     1  UNL1       -0.0530
      4 C           4.3726    0.3707    0.0803 C.3     1  UNL1       -0.0491
      5 C           3.3060    1.3587   -0.1959 C.3     1  UNL1       -0.0275
      6 C           2.0367    0.8638   -0.6689 C.ar    1  UNL1       -0.0404
      7 C           1.7210    0.6918   -1.9864 C.ar    1  UNL1       -0.0165
      8 C           0.5057    0.2202   -2.3842 C.ar    1  UNL1        0.1239
      9 O           0.1774    0.0424   -3.7271 O.3     1  UNL1       -0.5064
     10 C          -0.4678   -0.1069   -1.4625 C.ar    1  UNL1        0.0394
     11 C          -0.1815    0.0550   -0.1245 C.ar    1  UNL1        0.1284
     12 C           1.0612    0.5364    0.2619 C.ar    1  UNL1       -0.0162
     13 O          -1.3185   -0.3410    0.6063 O.3     1  UNL1       -0.4842
     14 C          -2.4420   -0.3289   -0.2536 C.3     1  UNL1        0.1224
     15 C          -1.8500   -0.6315   -1.5907 C.3     1  UNL1        0.0200
     16 C          -3.1539    0.9975   -0.2410 C.3     1  UNL1       -0.0031
     17 C          -2.3102    2.1092   -0.8096 C.3     1  UNL1       -0.0588
     18 C          -3.4793    1.3360    1.1938 C.3     1  UNL1       -0.0468
     19 C          -4.3581    0.2794    1.8255 C.3     1  UNL1       -0.0521
     20 C          -3.8419   -1.1088    1.6224 C.3     1  UNL1       -0.0442
     21 C          -3.3962   -1.3867    0.2098 C.3     1  UNL1        0.0055
     22 C          -2.7782   -2.7688    0.1934 C.3     1  UNL1       -0.0562
     23 C          -4.6392   -1.4487   -0.6508 C.3     1  UNL1       -0.0562
     24 H           7.0956   -1.1725    2.6391 H       1  UNL1        0.0230
     25 H           5.3830   -0.6542    2.4417 H       1  UNL1        0.0230
     26 H           6.0562   -1.9758    1.4384 H       1  UNL1        0.0230
     27 H           6.9834   -0.5516   -0.0816 H       1  UNL1        0.0263
     28 H           7.6154    0.5260    1.2054 H       1  UNL1        0.0263
     29 H           5.4841    1.6101    1.5104 H       1  UNL1        0.0265
     30 H           6.0624    1.7244   -0.2181 H       1  UNL1        0.0265
     31 H           4.6506   -0.2891   -0.7328 H       1  UNL1        0.0268
     32 H           4.0514   -0.2975    0.9344 H       1  UNL1        0.0268
     33 H           3.1448    1.9721    0.7157 H       1  UNL1        0.0313
     34 H           3.7058    2.0883   -0.9612 H       1  UNL1        0.0313
     35 H           2.4891    0.9504   -2.6999 H       1  UNL1        0.0657
     36 H           0.1646    0.8890   -4.2922 H       1  UNL1        0.2921
     37 H           1.2732    0.6591    1.3224 H       1  UNL1        0.0657
     38 H          -2.3953   -0.1484   -2.4384 H       1  UNL1        0.0354
     39 H          -1.7443   -1.7372   -1.7651 H       1  UNL1        0.0354
     40 H          -4.0531    0.8989   -0.8789 H       1  UNL1        0.0337
     41 H          -2.1790    2.0228   -1.9002 H       1  UNL1        0.0234
     42 H          -2.8939    3.0565   -0.6513 H       1  UNL1        0.0234
     43 H          -1.3842    2.2042   -0.2392 H       1  UNL1        0.0234
     44 H          -2.5143    1.3324    1.7478 H       1  UNL1        0.0269
     45 H          -4.0059    2.2888    1.2350 H       1  UNL1        0.0269
     46 H          -5.3786    0.4217    1.4401 H       1  UNL1        0.0266
     47 H          -4.4014    0.4756    2.9175 H       1  UNL1        0.0266
     48 H          -3.0802   -1.3948    2.3758 H       1  UNL1        0.0272
     49 H          -4.7096   -1.8062    1.8140 H       1  UNL1        0.0272
     50 H          -2.9073   -3.1506   -0.8598 H       1  UNL1        0.0236
     51 H          -3.4414   -3.4208    0.8082 H       1  UNL1        0.0236
     52 H          -1.7288   -2.7814    0.5153 H       1  UNL1        0.0236
     53 H          -5.1786   -2.3890   -0.3631 H       1  UNL1        0.0236
     54 H          -4.4004   -1.5491   -1.7280 H       1  UNL1        0.0236
     55 H          -5.3438   -0.6210   -0.4458 H       1  UNL1        0.0236
@<TRIPOS>BOND
     1     1     2    1
     2     2     3    1
     3     3     4    1
     4     4     5    1
     5     5     6    1
     6     6     7   ar
     7     7     8   ar
     8     8     9    1
     9     8    10   ar
    10    10    11   ar
    11    11    12   ar
    12    11    13    1
    13    14    13    1
    14    14    15    1
    15    14    16    1
    16    16    17    1
    17    16    18    1
    18    18    19    1
    19    19    20    1
    20    20    21    1
    21    21    22    1
    22    21    23    1
    23    12     6   ar
    24    21    14    1
    25    15    10    1
    26     1    24    1
    27     1    25    1
    28     1    26    1
    29     2    27    1
    30     2    28    1
    31     3    29    1
    32     3    30    1
    33     4    31    1
    34     4    32    1
    35     5    33    1
    36     5    34    1
    37     7    35    1
    38     9    36    1
    39    12    37    1
    40    15    38    1
    41    15    39    1
    42    16    40    1
    43    17    41    1
    44    17    42    1
    45    17    43    1
    46    18    44    1
    47    18    45    1
    48    19    46    1
    49    19    47    1
    50    20    48    1
    51    20    49    1
    52    22    50    1
    53    22    51    1
    54    22    52    1
    55    23    53    1
    56    23    54    1
    57    23    55    1
@<TRIPOS>MOLECULE
51324156
 70 72 0 0 0
SMALL
GASTEIGER

@<TRIPOS>ATOM
      1 C           1.6205   -2.9978   -1.8721 C.3     1  UNL1        0.0790
      2 O           2.9221   -2.4924   -1.6162 O.3     1  UNL1       -0.4914
      3 C           3.1204   -1.1949   -1.1520 C.ar    1  UNL1        0.1622
      4 C           2.0822   -0.3203   -0.9100 C.ar    1  UNL1       -0.0096
      5 C           2.2796    0.9769   -0.4460 C.ar    1  UNL1        0.0004
      6 C           1.1204    1.8951   -0.1734 C.3     1  UNL1        0.0029
      7 CA          0.8748    1.9858    1.3128 C.3     1  UNL1        0.1035
      8 N           0.5675    0.6735    1.8660 N.am    1  UNL1       -0.3022
      9 C          -0.3375    0.5651    2.9385 C.2     1  UNL1        0.2343
     10 O           0.0249   -0.2479    3.8749 O.2     1  UNL1       -0.2738
     11 CA         -1.5788    1.3063    2.9981 C.3     1  UNL1        0.1035
     12 C          -2.8782    0.6485    2.8832 C.3     1  UNL1        0.0029
     13 C          -3.3193   -0.0790    1.7297 C.ar    1  UNL1        0.0004
     14 C          -4.0970    0.6434    0.7758 C.ar    1  UNL1       -0.0096
     15 C          -4.6015    0.0549   -0.3492 C.ar    1  UNL1        0.1622
     16 O          -5.3650    0.7559   -1.2869 O.3     1  UNL1       -0.4914
     17 C          -5.6074    2.1234   -1.0385 C.3     1  UNL1        0.0790
     18 C          -4.3771   -1.2701   -0.6098 C.ar    1  UNL1        0.1679
     19 O          -4.8861   -1.8851   -1.7519 O.3     1  UNL1       -0.4911
     20 C          -4.2353   -1.9660   -2.9832 C.3     1  UNL1        0.0790
     21 C          -3.6423   -1.9835    0.2749 C.ar    1  UNL1        0.0367
     22 C          -3.3991   -3.4214   -0.0031 C.3     1  UNL1       -0.0326
     23 C          -3.1209   -1.3772    1.4359 C.ar    1  UNL1        0.1299
     24 O          -2.3910   -2.2283    2.2421 O.3     1  UNL1       -0.4945
     25 C          -1.0507   -2.4995    1.9271 C.3     1  UNL1        0.0788
     26 N          -1.4684    2.4715    2.1134 N.am    1  UNL1       -0.3022
     27 C          -0.2031    2.9019    1.6976 C.2     1  UNL1        0.2343
     28 O           0.0477    4.1606    1.6457 O.2     1  UNL1       -0.2738
     29 C           3.5781    1.3748   -0.2298 C.ar    1  UNL1        0.1299
     30 O           3.8795    2.6271    0.2244 O.3     1  UNL1       -0.4945
     31 C           4.1315    3.7582   -0.5456 C.3     1  UNL1        0.0788
     32 C           4.6375    0.5054   -0.4683 C.ar    1  UNL1        0.0367
     33 C           6.0411    0.9647   -0.2236 C.3     1  UNL1       -0.0326
     34 C           4.4145   -0.7841   -0.9309 C.ar    1  UNL1        0.1679
     35 O           5.5291   -1.5823   -1.1401 O.3     1  UNL1       -0.4911
     36 C           6.1430   -1.5606   -2.4097 C.3     1  UNL1        0.0790
     37 H           1.0796   -2.1830   -2.4113 H       1  UNL1        0.0660
     38 H           1.0662   -3.2200   -0.9462 H       1  UNL1        0.0660
     39 H           1.6176   -3.8997   -2.4968 H       1  UNL1        0.0660
     40 H           1.0429   -0.6369   -1.0830 H       1  UNL1        0.0659
     41 H           1.2934    2.8879   -0.6201 H       1  UNL1        0.0337
     42 H           0.2299    1.4546   -0.6482 H       1  UNL1        0.0337
     43 HA          1.7901    2.3175    1.8597 H       1  UNL1        0.0598
     44 H           1.0504   -0.1537    1.4361 H       1  UNL1        0.1495
     45 HA         -1.5464    1.8224    4.0403 H       1  UNL1        0.0598
     46 H          -3.6597    1.4620    3.1311 H       1  UNL1        0.0337
     47 H          -2.9877    0.0135    3.8473 H       1  UNL1        0.0337
     48 H          -4.2752    1.6906    0.9729 H       1  UNL1        0.0659
     49 H          -6.4189    2.4222   -1.7471 H       1  UNL1        0.0660
     50 H          -4.6973    2.7249   -1.1316 H       1  UNL1        0.0660
     51 H          -5.9812    2.1958    0.0237 H       1  UNL1        0.0660
     52 H          -4.0543   -3.0274   -3.2869 H       1  UNL1        0.0660
     53 H          -4.8674   -1.5297   -3.7910 H       1  UNL1        0.0660
     54 H          -3.2726   -1.4244   -3.0083 H       1  UNL1        0.0660
     55 H          -3.3298   -4.0173    0.9386 H       1  UNL1        0.0280
     56 H          -2.5321   -3.5651   -0.6781 H       1  UNL1        0.0280
     57 H          -4.2930   -3.8572   -0.5367 H       1  UNL1        0.0280
     58 H          -0.6862   -1.7288    1.2305 H       1  UNL1        0.0660
     59 H          -1.0353   -3.4605    1.3287 H       1  UNL1        0.0660
     60 H          -0.4035   -2.6980    2.7974 H       1  UNL1        0.0660
     61 H          -2.3433    2.9501    1.8225 H       1  UNL1        0.1495
     62 H           3.1893    4.3344   -0.6535 H       1  UNL1        0.0660
     63 H           4.6367    3.5676   -1.5144 H       1  UNL1        0.0660
     64 H           4.8251    4.4354    0.0384 H       1  UNL1        0.0660
     65 H           6.0083    1.7547    0.5809 H       1  UNL1        0.0280
     66 H           6.6364    0.0933    0.1251 H       1  UNL1        0.0280
     67 H           6.4831    1.4258   -1.1301 H       1  UNL1        0.0280
     68 H           6.0059   -2.5415   -2.8972 H       1  UNL1        0.0660
     69 H           5.7358   -0.7666   -3.0740 H       1  UNL1        0.0660
     70 H           7.2374   -1.3451   -2.3168 H       1  UNL1        0.0660
@<TRIPOS>BOND
     1     1     2    1
     2     2     3    1
     3     3     4   ar
     4     4     5   ar
     5     5     6    1
     6     6     7    1
     7     7     8    1
     8     8     9   am
     9     9    10    2
    10     9    11    1
    11    11    12    1
    12    12    13    1
    13    13    14   ar
    14    14    15   ar
    15    15    16    1
    16    16    17    1
    17    15    18   ar
    18    18    19    1
    19    19    20    1
    20    18    21   ar
    21    21    22    1
    22    21    23   ar
    23    23    24    1
    24    24    25    1
    25    11    26    1
    26    26    27   am
    27    27    28    2
    28     5    29   ar
    29    29    30    1
    30    30    31    1
    31    29    32   ar
    32    32    33    1
    33    32    34   ar
    34    34    35    1
    35    35    36    1
    36    34     3   ar
    37    27     7    1
    38    23    13   ar
    39     1    37    1
    40     1    38    1
    41     1    39    1
    42     4    40    1
    43     6    41    1
    44     6    42    1
    45     7    43    1
    46     8    44    1
    47    11    45    1
    48    12    46    1
    49    12    47    1
    50    14    48    1
    51    17    49    1
    52    17    50    1
    53    17    51    1
    54    20    52    1
    55    20    53    1
    56    20    54    1
    57    22    55    1
    58    22    56    1
    59    22    57    1
    60    25    58    1
    61    25    59    1
    62    25    60    1
    63    26    61    1
    64    31    62    1
    65    31    63    1
    66    31    64    1
    67    33    65    1
    68    33    66    1
    69    33    67    1
    70    36    68    1
    71    36    69    1
    72    36    70    1
@<TRIPOS>MOLECULE
51324151
 78 83 0 0 0
SMALL
GASTEIGER

@<TRIPOS>ATOM
      1 C           7.3273   -3.3476   -1.6033 C.3     1  UNL1        0.0790
      2 O           7.1262   -2.5598   -0.4464 O.3     1  UNL1       -0.4914
      3 C           5.8949   -1.9186   -0.2865 C.ar    1  UNL1        0.1618
      4 C           4.9090   -2.0554   -1.2346 C.ar    1  UNL1       -0.0127
      5 C           3.6715   -1.4254   -1.0980 C.ar    1  UNL1       -0.0369
      6 C           3.3894   -0.6461   -0.0145 C.ar    1  UNL1       -0.0157
      7 C           4.3736   -0.5081    0.9343 C.ar    1  UNL1       -0.0108
      8 C           5.6224   -1.1345    0.8116 C.ar    1  UNL1        0.1618
      9 O           6.6082   -0.9876    1.7762 O.3     1  UNL1       -0.4914
     10 C           6.4618   -0.2226    2.9346 C.3     1  UNL1        0.0790
     11 C           2.0630    0.0600    0.2002 C.3     1  UNL1        0.0783
     12 C           2.3480    1.3896    0.7711 C.ar    1  UNL1       -0.0224
     13 C           2.6287    2.4600   -0.0321 C.ar    1  UNL1       -0.0538
     14 C           2.9186    3.7215    0.5181 C.ar    1  UNL1       -0.0261
     15 C           2.9248    3.9007    1.8724 C.ar    1  UNL1        0.1234
     16 F           3.2039    5.1195    2.4452 F       1  UNL1       -0.2055
     17 C           2.6445    2.8355    2.6921 C.ar    1  UNL1       -0.0261
     18 C           2.3633    1.6085    2.1286 C.ar    1  UNL1       -0.0538
     19 N           1.2867    0.0680   -0.9792 N.am    1  UNL1       -0.2741
     20 C          -0.0815    0.2849   -1.1001 C.2     1  UNL1        0.3063
     21 O          -0.5325    0.2988   -2.3747 O.2     1  UNL1       -0.2524
     22 N          -1.1360    0.4943   -0.2225 N.am    1  UNL1       -0.2741
     23 C          -1.0907    0.5390    1.1892 C.3     1  UNL1        0.0210
     24 C          -2.0118    1.6894    1.7163 C.3     1  UNL1       -0.0113
     25 C          -3.3846    1.1724    1.4069 C.ar    1  UNL1       -0.0369
     26 C          -4.4096    1.1665    2.2987 C.ar    1  UNL1       -0.0127
     27 C          -5.6454    0.6469    1.9309 C.ar    1  UNL1        0.1618
     28 O          -6.6692    0.6473    2.8397 O.3     1  UNL1       -0.4914
     29 C          -6.4890    1.1634    4.1332 C.3     1  UNL1        0.0790
     30 C          -5.8718    0.1298    0.6758 C.ar    1  UNL1        0.1618
     31 O          -7.1150   -0.3810    0.3407 O.3     1  UNL1       -0.4914
     32 C          -7.4414   -0.9238   -0.8983 C.3     1  UNL1        0.0790
     33 C          -4.8270    0.1412   -0.2196 C.ar    1  UNL1       -0.0108
     34 C          -3.5655    0.6679    0.1443 C.ar    1  UNL1       -0.0157
     35 C          -2.4701    0.6937   -0.8223 C.3     1  UNL1        0.0783
     36 C          -2.6785   -0.2786   -1.9328 C.ar    1  UNL1       -0.0224
     37 C          -3.1806    0.1786   -3.1333 C.ar    1  UNL1       -0.0538
     38 C          -3.4160   -0.6409   -4.2160 C.ar    1  UNL1       -0.0261
     39 C          -3.1335   -1.9768   -4.0829 C.ar    1  UNL1        0.1234
     40 F          -3.3531   -2.8173   -5.1312 F       1  UNL1       -0.2055
     41 C          -2.6295   -2.4406   -2.8801 C.ar    1  UNL1       -0.0261
     42 C          -2.3998   -1.6093   -1.8079 C.ar    1  UNL1       -0.0538
     43 C           1.9676   -0.2377   -2.2874 C.3     1  UNL1        0.0210
     44 C           2.6335   -1.5954   -2.1520 C.3     1  UNL1       -0.0113
     45 H           6.6065   -4.1856   -1.6665 H       1  UNL1        0.0660
     46 H           7.1015   -2.7039   -2.5029 H       1  UNL1        0.0660
     47 H           8.3731   -3.6596   -1.7223 H       1  UNL1        0.0660
     48 H           5.0940   -2.6641   -2.1067 H       1  UNL1        0.0658
     49 H           4.1994    0.0995    1.8154 H       1  UNL1        0.0659
     50 H           5.8764    0.7030    2.8038 H       1  UNL1        0.0660
     51 H           6.0145   -0.8717    3.7390 H       1  UNL1        0.0660
     52 H           7.4617    0.0877    3.3412 H       1  UNL1        0.0660
     53 H           1.5716   -0.5879    0.9868 H       1  UNL1        0.0601
     54 H           2.6356    2.3864   -1.1157 H       1  UNL1        0.0622
     55 H           3.1353    4.5408   -0.1559 H       1  UNL1        0.0646
     56 H           2.6554    3.0027    3.7629 H       1  UNL1        0.0646
     57 H           2.1425    0.7878    2.7962 H       1  UNL1        0.0622
     58 H          -1.6127   -0.3794    1.6410 H       1  UNL1        0.0468
     59 H          -0.1668    0.6053    1.7141 H       1  UNL1        0.0468
     60 H          -1.8031    1.7649    2.7802 H       1  UNL1        0.0328
     61 H          -1.7965    2.5567    1.0972 H       1  UNL1        0.0328
     62 H          -4.2372    1.5727    3.2893 H       1  UNL1        0.0658
     63 H          -7.4745    1.0253    4.6633 H       1  UNL1        0.0660
     64 H          -6.2620    2.2621    4.1264 H       1  UNL1        0.0660
     65 H          -5.6713    0.6460    4.6722 H       1  UNL1        0.0660
     66 H          -8.2771   -1.6493   -0.7407 H       1  UNL1        0.0660
     67 H          -7.8264   -0.1800   -1.6251 H       1  UNL1        0.0660
     68 H          -6.5909   -1.5032   -1.3037 H       1  UNL1        0.0660
     69 H          -4.9659   -0.2523   -1.2045 H       1  UNL1        0.0659
     70 H          -2.4244    1.7334   -1.2565 H       1  UNL1        0.0601
     71 H          -3.3985    1.2531   -3.2140 H       1  UNL1        0.0622
     72 H          -3.8114   -0.2516   -5.1466 H       1  UNL1        0.0646
     73 H          -2.4275   -3.5119   -2.8432 H       1  UNL1        0.0646
     74 H          -2.0022   -2.0099   -0.8766 H       1  UNL1        0.0622
     75 H           2.7584    0.5005   -2.4202 H       1  UNL1        0.0468
     76 H           1.2326   -0.2940   -3.0997 H       1  UNL1        0.0468
     77 H           1.9165   -2.3919   -1.9338 H       1  UNL1        0.0328
     78 H           3.1386   -1.8055   -3.0992 H       1  UNL1        0.0328
@<TRIPOS>BOND
     1     1     2    1
     2     2     3    1
     3     3     4   ar
     4     4     5   ar
     5     5     6   ar
     6     6     7   ar
     7     7     8   ar
     8     8     9    1
     9     9    10    1
    10     6    11    1
    11    11    12    1
    12    12    13   ar
    13    13    14   ar
    14    14    15   ar
    15    15    16    1
    16    15    17   ar
    17    17    18   ar
    18    11    19    1
    19    19    20   am
    20    20    21    2
    21    20    22   am
    22    22    23    1
    23    23    24    1
    24    24    25    1
    25    25    26   ar
    26    26    27   ar
    27    27    28    1
    28    28    29    1
    29    27    30   ar
    30    30    31    1
    31    31    32    1
    32    30    33   ar
    33    33    34   ar
    34    34    35    1
    35    35    36    1
    36    36    37   ar
    37    37    38   ar
    38    38    39   ar
    39    39    40    1
    40    39    41   ar
    41    41    42   ar
    42    19    43    1
    43    43    44    1
    44     8     3   ar
    45    18    12   ar
    46    35    22    1
    47    42    36   ar
    48    44     5    1
    49    34    25   ar
    50     1    45    1
    51     1    46    1
    52     1    47    1
    53     4    48    1
    54     7    49    1
    55    10    50    1
    56    10    51    1
    57    10    52    1
    58    11    53    1
    59    13    54    1
    60    14    55    1
    61    17    56    1
    62    18    57    1
    63    23    58    1
    64    23    59    1
    65    24    60    1
    66    24    61    1
    67    26    62    1
    68    29    63    1
    69    29    64    1
    70    29    65    1
    71    32    66    1
    72    32    67    1
    73    32    68    1
    74    33    69    1
    75    35    70    1
    76    37    71    1
    77    38    72    1
    78    41    73    1
    79    42    74    1
    80    43    75    1
    81    43    76    1
    82    44    77    1
    83    44    78    1
@<TRIPOS>MOLECULE
51324152
 104 111 0 0 0
SMALL
GASTEIGER

@<TRIPOS>ATOM
      1 C           3.7626   -3.8287    6.1569 C.3     1  UNL1        0.0790
      2 O           4.1430   -2.5059    5.8024 O.3     1  UNL1       -0.4914
      3 C           3.6834   -1.9113    4.6288 C.ar    1  UNL1        0.1618
      4 C           2.8410   -2.6188    3.8054 C.ar    1  UNL1       -0.0127
      5 C           2.3646   -2.0334    2.6121 C.ar    1  UNL1       -0.0369
      6 C           2.7755   -0.7683    2.3336 C.ar    1  UNL1       -0.0157
      7 C           3.6386   -0.0597    3.1890 C.ar    1  UNL1       -0.0108
      8 C           4.1002   -0.6280    4.3468 C.ar    1  UNL1        0.1618
      9 O           4.9519    0.0057    5.2403 O.3     1  UNL1       -0.4914
     10 C           5.4185    1.3236    5.0161 C.3     1  UNL1        0.0790
     11 C           2.3315   -0.0696    1.1291 C.3     1  UNL1        0.0783
     12 C           3.3723   -0.1294    0.0889 C.ar    1  UNL1       -0.0223
     13 C           4.2186    0.9657   -0.1240 C.ar    1  UNL1       -0.0530
     14 C           5.2120    0.9812   -1.0697 C.ar    1  UNL1       -0.0190
     15 C           5.4167   -0.1165   -1.8677 C.ar    1  UNL1        0.1285
     16 O           6.4131   -0.1319   -2.8328 O.3     1  UNL1       -0.4560
     17 C           7.2133    1.0008   -3.0625 C.ar    1  UNL1        0.1289
     18 C           6.8316    1.9148   -4.0318 C.ar    1  UNL1       -0.0129
     19 C           7.6133    3.0085   -4.2442 C.ar    1  UNL1        0.0191
     20 C           8.7650    3.2227   -3.5214 C.ar    1  UNL1        0.2734
     21 N           9.5488    4.3797   -3.7749 N.pl3   1  UNL1        0.0796
     22 O           9.2126    5.1956   -4.6355 O.2     1  UNL1        0.0414
     23 O          10.6850    4.5854   -3.0545 O.co2   1  UNL1       -0.5760
     24 C           9.1247    2.2924   -2.5571 C.ar    1  UNL1        0.0191
     25 C           8.3416    1.1575   -2.3156 C.ar    1  UNL1       -0.0129
     26 C           4.6184   -1.2131   -1.7020 C.ar    1  UNL1       -0.0190
     27 C           3.6089   -1.2113   -0.7320 C.ar    1  UNL1       -0.0530
     28 N           1.0554   -0.5925    0.6087 N.am    1  UNL1       -0.2741
     29 C           0.3898    0.2795   -0.2707 C.2     1  UNL1        0.3063
     30 O           1.0248    1.3995   -0.5872 O.2     1  UNL1       -0.2524
     31 N          -0.8654    0.1967   -0.9025 N.am    1  UNL1       -0.2741
     32 C          -1.1540    1.3358   -1.8122 C.3     1  UNL1        0.0210
     33 C          -2.5323    1.3372   -2.3607 C.3     1  UNL1       -0.0113
     34 C          -2.8326   -0.0195   -2.9096 C.ar    1  UNL1       -0.0369
     35 C          -3.4037   -0.1929   -4.1667 C.ar    1  UNL1       -0.0127
     36 C          -3.6304   -1.4818   -4.6023 C.ar    1  UNL1        0.1618
     37 O          -4.1983   -1.7585   -5.8473 O.3     1  UNL1       -0.4914
     38 C          -4.5407   -0.6432   -6.6598 C.3     1  UNL1        0.0790
     39 C          -3.2823   -2.5330   -3.7760 C.ar    1  UNL1        0.1618
     40 O          -3.5244   -3.8260   -4.2455 O.3     1  UNL1       -0.4914
     41 C          -3.1950   -4.9410   -3.4500 C.3     1  UNL1        0.0790
     42 C          -2.7152   -2.3588   -2.5277 C.ar    1  UNL1       -0.0108
     43 C          -2.4933   -1.0678   -2.1020 C.ar    1  UNL1       -0.0157
     44 C          -1.8926   -0.7721   -0.7583 C.3     1  UNL1        0.0783
     45 C          -2.9937   -0.1770    0.0853 C.ar    1  UNL1       -0.0223
     46 C          -2.6564    0.6203    1.1500 C.ar    1  UNL1       -0.0530
     47 C          -3.6483    1.1388    1.9092 C.ar    1  UNL1       -0.0190
     48 C          -5.0379    0.9117    1.6778 C.ar    1  UNL1        0.1285
     49 O          -5.9178    1.4690    2.4844 O.3     1  UNL1       -0.4560
     50 C          -7.1561    1.7057    2.7487 C.ar    1  UNL1        0.1289
     51 C          -8.2390    1.4161    1.9663 C.ar    1  UNL1       -0.0129
     52 C          -9.5409    1.7206    2.3608 C.ar    1  UNL1        0.0191
     53 C          -9.7797    2.3252    3.5546 C.ar    1  UNL1        0.2734
     54 N         -11.1033    2.6458    3.9764 N.pl3   1  UNL1        0.0796
     55 O         -11.2931    3.2015    5.0758 O.2     1  UNL1        0.0414
     56 O         -12.1476    2.3299    3.1476 O.co2   1  UNL1       -0.5760
     57 C          -8.7086    2.6278    4.3606 C.ar    1  UNL1        0.0191
     58 C          -7.4459    2.3384    3.9906 C.ar    1  UNL1       -0.0129
     59 C          -5.3022    0.0965    0.5859 C.ar    1  UNL1       -0.0190
     60 C          -4.2978   -0.4376   -0.1957 C.ar    1  UNL1       -0.0530
     61 C           0.5648   -1.8651    0.9547 C.3     1  UNL1        0.0210
     62 C           1.4724   -2.7772    1.7256 C.3     1  UNL1       -0.0113
     63 H           3.8122   -4.5295    5.2971 H       1  UNL1        0.0660
     64 H           4.5205   -4.1564    6.9183 H       1  UNL1        0.0660
     65 H           2.7422   -3.8295    6.5517 H       1  UNL1        0.0660
     66 H           2.5086   -3.6177    4.0138 H       1  UNL1        0.0658
     67 H           3.9436    0.9462    2.9328 H       1  UNL1        0.0659
     68 H           6.2782    1.5712    5.6773 H       1  UNL1        0.0660
     69 H           5.6323    1.4506    3.9547 H       1  UNL1        0.0660
     70 H           4.6356    2.0906    5.2910 H       1  UNL1        0.0660
     71 H           2.1838    1.0222    1.3825 H       1  UNL1        0.0601
     72 H           4.0804    1.8554    0.4957 H       1  UNL1        0.0622
     73 H           5.8609    1.8581   -1.2124 H       1  UNL1        0.0654
     74 H           5.9429    1.7332   -4.5788 H       1  UNL1        0.0656
     75 H           7.3060    3.7132   -5.0040 H       1  UNL1        0.0686
     76 H          10.0350    2.4853   -2.0022 H       1  UNL1        0.0686
     77 H           8.6924    0.4838   -1.5494 H       1  UNL1        0.0656
     78 H           4.7251   -2.1125   -2.2966 H       1  UNL1        0.0654
     79 H           2.9985   -2.0806   -0.6287 H       1  UNL1        0.0622
     80 H          -0.4301    1.2663   -2.6490 H       1  UNL1        0.0468
     81 H          -0.9571    2.3004   -1.3031 H       1  UNL1        0.0468
     82 H          -3.3180    1.7487   -1.7255 H       1  UNL1        0.0328
     83 H          -2.4891    1.9993   -3.2853 H       1  UNL1        0.0328
     84 H          -3.6577    0.6517   -4.7739 H       1  UNL1        0.0658
     85 H          -5.0217   -0.9247   -7.6000 H       1  UNL1        0.0660
     86 H          -5.2359    0.0480   -6.1008 H       1  UNL1        0.0660
     87 H          -3.6212   -0.0406   -6.8409 H       1  UNL1        0.0660
     88 H          -2.0981   -5.1587   -3.5124 H       1  UNL1        0.0660
     89 H          -3.6857   -5.8534   -3.8964 H       1  UNL1        0.0660
     90 H          -3.4920   -4.8285   -2.4038 H       1  UNL1        0.0660
     91 H          -2.4433   -3.1638   -1.8850 H       1  UNL1        0.0659
     92 H          -1.6631   -1.7162   -0.2777 H       1  UNL1        0.0601
     93 H          -1.5977    0.8364    1.3835 H       1  UNL1        0.0622
     94 H          -3.4249    1.7757    2.7611 H       1  UNL1        0.0654
     95 H          -8.1334    0.9445    0.9969 H       1  UNL1        0.0656
     96 H         -10.3730    1.4721    1.7067 H       1  UNL1        0.0686
     97 H          -8.9189    3.1166    5.3215 H       1  UNL1        0.0686
     98 H          -6.6187    2.5805    4.6293 H       1  UNL1        0.0656
     99 H          -6.3271   -0.1489    0.3255 H       1  UNL1        0.0654
    100 H          -4.6029   -1.0764   -1.0457 H       1  UNL1        0.0622
    101 H           0.4098   -2.4257   -0.0238 H       1  UNL1        0.0468
    102 H          -0.3481   -1.7675    1.5598 H       1  UNL1        0.0468
    103 H           0.8614   -3.5392    2.3111 H       1  UNL1        0.0328
    104 H           2.1034   -3.4401    1.0727 H       1  UNL1        0.0328
@<TRIPOS>UNITY_ATOM_ATTR
21 1
charge 1
23 1
charge -1
54 1
charge 1
56 1
charge -1
@<TRIPOS>BOND
     1     1     2    1
     2     2     3    1
     3     3     4   ar
     4     4     5   ar
     5     5     6   ar
     6     6     7   ar
     7     7     8   ar
     8     8     9    1
     9     9    10    1
    10     6    11    1
    11    11    12    1
    12    12    13   ar
    13    13    14   ar
    14    14    15   ar
    15    15    16    1
    16    16    17    1
    17    17    18   ar
    18    18    19   ar
    19    19    20   ar
    20    20    21    1
    21    21    22    2
    22    21    23    1
    23    20    24   ar
    24    24    25   ar
    25    15    26   ar
    26    26    27   ar
    27    11    28    1
    28    28    29   am
    29    29    30    2
    30    29    31   am
    31    31    32    1
    32    32    33    1
    33    33    34    1
    34    34    35   ar
    35    35    36   ar
    36    36    37    1
    37    37    38    1
    38    36    39   ar
    39    39    40    1
    40    40    41    1
    41    39    42   ar
    42    42    43   ar
    43    43    44    1
    44    44    45    1
    45    45    46   ar
    46    46    47   ar
    47    47    48   ar
    48    48    49    1
    49    49    50    1
    50    50    51   ar
    51    51    52   ar
    52    52    53   ar
    53    53    54    1
    54    54    55    2
    55    54    56    1
    56    53    57   ar
    57    57    58   ar
    58    48    59   ar
    59    59    60   ar
    60    28    61    1
    61    61    62    1
    62     8     3   ar
    63    27    12   ar
    64    44    31    1
    65    60    45   ar
    66    62     5    1
    67    25    17   ar
    68    43    34   ar
    69    58    50   ar
    70     1    63    1
    71     1    64    1
    72     1    65    1
    73     4    66    1
    74     7    67    1
    75    10    68    1
    76    10    69    1
    77    10    70    1
    78    11    71    1
    79    13    72    1
    80    14    73    1
    81    18    74    1
    82    19    75    1
    83    24    76    1
    84    25    77    1
    85    26    78    1
    86    27    79    1
    87    32    80    1
    88    32    81    1
    89    33    82    1
    90    33    83    1
    91    35    84    1
    92    38    85    1
    93    38    86    1
    94    38    87    1
    95    41    88    1
    96    41    89    1
    97    41    90    1
    98    42    91    1
    99    44    92    1
   100    46    93    1
   101    47    94    1
   102    51    95    1
   103    52    96    1
   104    57    97    1
   105    58    98    1
   106    59    99    1
   107    60   100    1
   108    61   101    1
   109    61   102    1
   110    62   103    1
   111    62   104    1
@<TRIPOS>MOLECULE
51324112
 86 91 0 0 0
SMALL
GASTEIGER

@<TRIPOS>ATOM
      1 C           6.6024    0.8682    3.5904 C.3     1  UNL1        0.0790
      2 O           6.5363    1.0181    2.1866 O.3     1  UNL1       -0.4914
      3 C           5.4967    0.4083    1.4952 C.ar    1  UNL1        0.1618
      4 C           4.5522   -0.3296    2.1829 C.ar    1  UNL1       -0.0127
      5 C           3.5489   -0.9125    1.4865 C.ar    1  UNL1       -0.0369
      6 C           3.4617   -0.7786    0.1174 C.ar    1  UNL1       -0.0154
      7 C           4.4237   -0.0280   -0.5818 C.ar    1  UNL1       -0.0108
      8 C           5.4520    0.5724    0.1146 C.ar    1  UNL1        0.1618
      9 O           6.4302    1.3175   -0.4805 O.3     1  UNL1       -0.4914
     10 C           6.6154    1.6094   -1.8230 C.3     1  UNL1        0.0790
     11 C           2.3521   -1.4356   -0.5864 C.3     1  UNL1        0.0847
     12 C           2.2962   -0.8969   -1.9590 C.ar    1  UNL1        0.0548
     13 C           1.5683    0.2850   -2.1948 C.ar    1  UNL1       -0.0436
     14 C           1.5224    0.8367   -3.4518 C.ar    1  UNL1        0.0164
     15 C           2.1991    0.2322   -4.5166 C.ar    1  UNL1        0.2796
     16 N           2.1499    0.7954   -5.8134 N.pl3   1  UNL1        0.0798
     17 O           1.5273    1.8461   -6.0197 O.2     1  UNL1        0.0414
     18 O           2.7939    0.1885   -6.8564 O.co2   1  UNL1       -0.5760
     19 C           2.8987   -0.9162   -4.2596 C.ar    1  UNL1        0.0929
     20 C           2.9684   -1.5167   -2.9713 C.ar    1  UNL1        0.2848
     21 N           3.7487   -2.6869   -2.8974 N.pl3   1  UNL1        0.0802
     22 O           4.7280   -2.8411   -3.6959 O.2     1  UNL1        0.0415
     23 O           3.5400   -3.6847   -2.0286 O.co2   1  UNL1       -0.5760
     24 N           1.0777   -1.2354    0.1196 N.am    1  UNL1       -0.2738
     25 C          -0.1263   -1.3982   -0.5651 C.2     1  UNL1        0.3063
     26 O           0.1283   -1.9244   -1.7843 O.2     1  UNL1       -0.2524
     27 N          -1.4809   -1.1972   -0.3949 N.am    1  UNL1       -0.2738
     28 C          -2.3250   -1.7808   -1.4758 C.3     1  UNL1        0.0211
     29 C          -3.5190   -2.5129   -0.9640 C.3     1  UNL1       -0.0113
     30 C          -4.2607   -1.6954    0.0443 C.ar    1  UNL1       -0.0369
     31 C          -5.5996   -1.9254    0.2117 C.ar    1  UNL1       -0.0127
     32 C          -6.3368   -1.1953    1.1061 C.ar    1  UNL1        0.1618
     33 O          -7.7081   -1.3958    1.3116 O.3     1  UNL1       -0.4914
     34 C          -8.4621   -2.3535    0.6344 C.3     1  UNL1        0.0790
     35 C          -5.6777   -0.2005    1.8488 C.ar    1  UNL1        0.1618
     36 O          -6.4700    0.5119    2.7463 O.3     1  UNL1       -0.4914
     37 C          -5.9237    1.5105    3.5372 C.3     1  UNL1        0.0790
     38 C          -4.3292    0.0187    1.6672 C.ar    1  UNL1       -0.0108
     39 C          -3.6051   -0.7293    0.7611 C.ar    1  UNL1       -0.0154
     40 C          -2.1309   -0.4793    0.6451 C.3     1  UNL1        0.0847
     41 C          -1.7764    0.9358    0.8503 C.ar    1  UNL1        0.0548
     42 C          -1.0910    1.3005    2.0308 C.ar    1  UNL1       -0.0436
     43 C          -0.6931    2.5918    2.2203 C.ar    1  UNL1        0.0164
     44 C          -0.9421    3.5641    1.2850 C.ar    1  UNL1        0.2796
     45 N          -0.5224    4.8975    1.4788 N.pl3   1  UNL1        0.0798
     46 O          -0.7346    5.7731    0.6275 O.2     1  UNL1        0.0414
     47 O           0.1339    5.2284    2.6317 O.co2   1  UNL1       -0.5760
     48 C          -1.6066    3.2189    0.1458 C.ar    1  UNL1        0.0929
     49 C          -2.0408    1.8916   -0.0935 C.ar    1  UNL1        0.2848
     50 N          -2.7521    1.7061   -1.2876 N.pl3   1  UNL1        0.0802
     51 O          -3.7384    0.9980   -1.3681 O.2     1  UNL1        0.0415
     52 O          -2.3956    2.4222   -2.4113 O.co2   1  UNL1       -0.5760
     53 C           1.1793   -0.9915    1.5188 C.3     1  UNL1        0.0211
     54 C           2.4449   -1.7305    2.0833 C.3     1  UNL1       -0.0113
     55 H           5.6669    1.2749    4.0757 H       1  UNL1        0.0660
     56 H           6.7186   -0.2283    3.8226 H       1  UNL1        0.0660
     57 H           7.5050    1.4511    3.9299 H       1  UNL1        0.0660
     58 H           4.5860   -0.4587    3.2526 H       1  UNL1        0.0658
     59 H           4.3587    0.0782   -1.6579 H       1  UNL1        0.0659
     60 H           7.6784    1.9788   -1.9508 H       1  UNL1        0.0660
     61 H           5.9922    2.4091   -2.2174 H       1  UNL1        0.0660
     62 H           6.5120    0.6480   -2.4021 H       1  UNL1        0.0660
     63 H           2.5145   -2.5110   -0.5993 H       1  UNL1        0.0604
     64 H           1.0755    0.6896   -1.3275 H       1  UNL1        0.0625
     65 H           0.9494    1.7429   -3.5727 H       1  UNL1        0.0685
     66 H           3.4293   -1.3993   -5.0670 H       1  UNL1        0.0754
     67 H          -1.6548   -2.6025   -1.9192 H       1  UNL1        0.0468
     68 H          -2.4941   -1.0806   -2.2957 H       1  UNL1        0.0468
     69 H          -4.2100   -2.6571   -1.8235 H       1  UNL1        0.0328
     70 H          -3.2597   -3.5040   -0.5459 H       1  UNL1        0.0328
     71 H          -6.0937   -2.7098   -0.3816 H       1  UNL1        0.0658
     72 H          -9.3823   -2.6201    1.2311 H       1  UNL1        0.0660
     73 H          -7.8568   -3.2533    0.4432 H       1  UNL1        0.0660
     74 H          -8.7780   -1.9043   -0.3556 H       1  UNL1        0.0660
     75 H          -4.8653    1.4193    3.8046 H       1  UNL1        0.0660
     76 H          -6.1151    2.5208    3.0706 H       1  UNL1        0.0660
     77 H          -6.4775    1.4984    4.5193 H       1  UNL1        0.0660
     78 H          -3.8364    0.8046    2.2535 H       1  UNL1        0.0659
     79 H          -1.7733   -1.0155    1.6077 H       1  UNL1        0.0604
     80 H          -0.9055    0.5290    2.7877 H       1  UNL1        0.0625
     81 H          -0.1704    2.8438    3.1311 H       1  UNL1        0.0685
     82 H          -1.8398    3.9504   -0.6439 H       1  UNL1        0.0754
     83 H           1.3909    0.0653    1.7411 H       1  UNL1        0.0468
     84 H           0.3404   -1.3317    2.1354 H       1  UNL1        0.0468
     85 H           2.4209   -1.7044    3.1661 H       1  UNL1        0.0328
     86 H           2.4453   -2.6982    1.5894 H       1  UNL1        0.0328
@<TRIPOS>UNITY_ATOM_ATTR
16 1
charge 1
18 1
charge -1
21 1
charge 1
23 1
charge -1
45 1
charge 1
47 1
charge -1
50 1
charge 1
52 1
charge -1
@<TRIPOS>BOND
     1     1     2    1
     2     2     3    1
     3     3     4   ar
     4     4     5   ar
     5     5     6   ar
     6     6     7   ar
     7     7     8   ar
     8     8     9    1
     9     9    10    1
    10     6    11    1
    11    11    12    1
    12    12    13   ar
    13    13    14   ar
    14    14    15   ar
    15    15    16    1
    16    16    17    2
    17    16    18    1
    18    15    19   ar
    19    19    20   ar
    20    20    21    1
    21    21    22    2
    22    21    23    1
    23    11    24    1
    24    24    25   am
    25    25    26    2
    26    25    27   am
    27    27    28    1
    28    28    29    1
    29    29    30    1
    30    30    31   ar
    31    31    32   ar
    32    32    33    1
    33    33    34    1
    34    32    35   ar
    35    35    36    1
    36    36    37    1
    37    35    38   ar
    38    38    39   ar
    39    39    40    1
    40    40    41    1
    41    41    42   ar
    42    42    43   ar
    43    43    44   ar
    44    44    45    1
    45    45    46    2
    46    45    47    1
    47    44    48   ar
    48    48    49   ar
    49    49    50    1
    50    50    51    2
    51    50    52    1
    52    24    53    1
    53    53    54    1
    54     8     3   ar
    55    20    12   ar
    56    40    27    1
    57    49    41   ar
    58    54     5    1
    59    39    30   ar
    60     1    55    1
    61     1    56    1
    62     1    57    1
    63     4    58    1
    64     7    59    1
    65    10    60    1
    66    10    61    1
    67    10    62    1
    68    11    63    1
    69    13    64    1
    70    14    65    1
    71    19    66    1
    72    28    67    1
    73    28    68    1
    74    29    69    1
    75    29    70    1
    76    31    71    1
    77    34    72    1
    78    34    73    1
    79    34    74    1
    80    37    75    1
    81    37    76    1
    82    37    77    1
    83    38    78    1
    84    40    79    1
    85    42    80    1
    86    43    81    1
    87    48    82    1
    88    53    83    1
    89    53    84    1
    90    54    85    1
    91    54    86    1
@<TRIPOS>MOLECULE
51324114
 104 111 0 0 0
SMALL
GASTEIGER

@<TRIPOS>ATOM
      1 C           2.9603   -3.0781    6.5183 C.3     1  UNL1        0.0790
      2 O           3.5919   -2.2477    5.5974 O.3     1  UNL1       -0.4914
      3 C           3.2962   -2.0917    4.2636 C.ar    1  UNL1        0.1618
      4 C           2.2740   -2.8033    3.6632 C.ar    1  UNL1       -0.0127
      5 C           1.9755   -2.6449    2.3165 C.ar    1  UNL1       -0.0369
      6 C           2.7376   -1.7522    1.6102 C.ar    1  UNL1       -0.0157
      7 C           3.7674   -1.0176    2.1570 C.ar    1  UNL1       -0.0108
      8 C           4.0386   -1.2040    3.5128 C.ar    1  UNL1        0.1618
      9 O           5.0527   -0.5137    4.1560 O.3     1  UNL1       -0.4914
     10 C           5.8180    0.3996    3.3705 C.3     1  UNL1        0.0790
     11 C           2.3800   -1.5855    0.1493 C.3     1  UNL1        0.0783
     12 C           3.1279   -0.4223   -0.3780 C.ar    1  UNL1       -0.0223
     13 C           2.8892    0.8729    0.0594 C.ar    1  UNL1       -0.0530
     14 C           3.6532    1.8739   -0.4934 C.ar    1  UNL1       -0.0190
     15 C           4.6169    1.6078   -1.4428 C.ar    1  UNL1        0.1285
     16 O           5.3993    2.5991   -2.0119 O.3     1  UNL1       -0.4560
     17 C           6.6490    2.9430   -1.5441 C.ar    1  UNL1        0.1289
     18 C           6.8248    3.9149   -0.5896 C.ar    1  UNL1       -0.0129
     19 C           8.0726    4.2632   -0.1181 C.ar    1  UNL1        0.0191
     20 C           9.2065    3.6415   -0.5926 C.ar    1  UNL1        0.2734
     21 N          10.5207    3.9748   -0.1281 N.pl3   1  UNL1        0.0796
     22 O          10.7108    4.8443    0.7309 O.2     1  UNL1        0.0414
     23 O          11.6011    3.3222   -0.6406 O.co2   1  UNL1       -0.5760
     24 C           9.0362    2.6654   -1.5501 C.ar    1  UNL1        0.0191
     25 C           7.8018    2.3222   -2.0148 C.ar    1  UNL1       -0.0129
     26 C           4.8601    0.3132   -1.8856 C.ar    1  UNL1       -0.0190
     27 C           4.0941   -0.6718   -1.3280 C.ar    1  UNL1       -0.0530
     28 N           0.9429   -1.5095   -0.0138 N.am    1  UNL1       -0.2741
     29 C           0.4131   -0.6814   -1.0200 C.2     1  UNL1        0.3063
     30 O           1.2875   -0.0685   -1.8025 O.2     1  UNL1       -0.2524
     31 N          -0.9025   -0.3655   -1.3716 N.am    1  UNL1       -0.2741
     32 C          -1.0642    0.5410   -2.5601 C.3     1  UNL1        0.0210
     33 C          -2.2176    0.1268   -3.4139 C.3     1  UNL1       -0.0113
     34 C          -2.7480   -1.2132   -3.1246 C.ar    1  UNL1       -0.0369
     35 C          -3.2579   -1.9852   -4.1787 C.ar    1  UNL1       -0.0127
     36 C          -3.7568   -3.2444   -3.9308 C.ar    1  UNL1        0.1618
     37 O          -4.2741   -4.0354   -4.9746 O.3     1  UNL1       -0.4914
     38 C          -4.2854   -3.5284   -6.3073 C.3     1  UNL1        0.0790
     39 C          -3.7383   -3.7123   -2.6377 C.ar    1  UNL1        0.1618
     40 O          -4.2483   -4.9942   -2.4162 O.3     1  UNL1       -0.4914
     41 C          -4.2279   -5.4796   -1.0886 C.3     1  UNL1        0.0790
     42 C          -3.2310   -2.9474   -1.5776 C.ar    1  UNL1       -0.0108
     43 C          -2.7399   -1.7001   -1.8394 C.ar    1  UNL1       -0.0157
     44 C          -2.1548   -0.7897   -0.7748 C.3     1  UNL1        0.0783
     45 C          -3.1499    0.3329   -0.6777 C.ar    1  UNL1       -0.0223
     46 C          -2.7554    1.5550   -0.1935 C.ar    1  UNL1       -0.0530
     47 C          -3.6943    2.5881   -0.1005 C.ar    1  UNL1       -0.0190
     48 C          -5.0096    2.4255   -0.4787 C.ar    1  UNL1        0.1285
     49 O          -5.9642    3.4511   -0.3908 O.3     1  UNL1       -0.4560
     50 C          -6.7428    3.5038    0.7388 C.ar    1  UNL1        0.1289
     51 C          -7.9374    2.8107    0.7819 C.ar    1  UNL1       -0.0129
     52 C          -8.7546    2.8324    1.8953 C.ar    1  UNL1        0.0191
     53 C          -8.3465    3.5681    2.9739 C.ar    1  UNL1        0.2734
     54 N          -9.1629    3.6029    4.1329 N.pl3   1  UNL1        0.0796
     55 O          -8.8102    4.2692    5.1426 O.2     1  UNL1        0.0414
     56 O         -10.3539    2.9336    4.2275 O.co2   1  UNL1       -0.5760
     57 C          -7.1489    4.2861    2.9807 C.ar    1  UNL1        0.0191
     58 C          -6.3585    4.2278    1.8216 C.ar    1  UNL1       -0.0129
     59 C          -5.3804    1.1802   -0.9646 C.ar    1  UNL1       -0.0190
     60 C          -4.4712    0.1518   -1.0634 C.ar    1  UNL1       -0.0530
     61 C           0.1111   -2.3223    0.8141 C.3     1  UNL1        0.0210
     62 C           0.9204   -3.3792    1.5958 C.3     1  UNL1       -0.0113
     63 H           2.7357   -4.0432    6.0165 H       1  UNL1        0.0660
     64 H           3.6291   -3.3029    7.3523 H       1  UNL1        0.0660
     65 H           1.9669   -2.6780    6.8290 H       1  UNL1        0.0660
     66 H           1.6958   -3.4903    4.2329 H       1  UNL1        0.0658
     67 H           4.3692   -0.3155    1.5916 H       1  UNL1        0.0659
     68 H           6.6672    0.8222    3.9559 H       1  UNL1        0.0660
     69 H           6.2462   -0.1023    2.4786 H       1  UNL1        0.0660
     70 H           5.1830    1.2426    3.0487 H       1  UNL1        0.0660
     71 H           2.7294   -2.4956   -0.3548 H       1  UNL1        0.0601
     72 H           2.1228    0.9966    0.7998 H       1  UNL1        0.0622
     73 H           3.4731    2.8927   -0.1569 H       1  UNL1        0.0654
     74 H           5.9428    4.4265   -0.1937 H       1  UNL1        0.0656
     75 H           8.2293    5.0280    0.6339 H       1  UNL1        0.0686
     76 H           9.9425    2.1796   -1.9184 H       1  UNL1        0.0686
     77 H           7.6588    1.5670   -2.7571 H       1  UNL1        0.0656
     78 H           5.6100    0.0866   -2.6286 H       1  UNL1        0.0654
     79 H           4.2836   -1.6986   -1.6751 H       1  UNL1        0.0622
     80 H          -0.1209    0.4645   -3.1265 H       1  UNL1        0.0468
     81 H          -1.2506    1.5860   -2.2113 H       1  UNL1        0.0468
     82 H          -3.0236    0.9219   -3.3917 H       1  UNL1        0.0328
     83 H          -1.8234    0.1324   -4.4874 H       1  UNL1        0.0328
     84 H          -3.2582   -1.5883   -5.1754 H       1  UNL1        0.0658
     85 H          -4.8423   -4.2680   -6.9322 H       1  UNL1        0.0660
     86 H          -4.8801   -2.5798   -6.2631 H       1  UNL1        0.0660
     87 H          -3.2678   -3.3221   -6.6947 H       1  UNL1        0.0660
     88 H          -3.1740   -5.4261   -0.7129 H       1  UNL1        0.0660
     89 H          -4.4790   -6.5539   -1.1413 H       1  UNL1        0.0660
     90 H          -4.8873   -4.9060   -0.4048 H       1  UNL1        0.0660
     91 H          -3.2221   -3.3153   -0.5823 H       1  UNL1        0.0659
     92 H          -2.1111   -1.3062    0.1694 H       1  UNL1        0.0601
     93 H          -1.7305    1.7277    0.1186 H       1  UNL1        0.0622
     94 H          -3.3752    3.5371    0.2794 H       1  UNL1        0.0654
     95 H          -8.2172    2.2453   -0.0922 H       1  UNL1        0.0656
     96 H          -9.6769    2.2775    1.8847 H       1  UNL1        0.0686
     97 H          -6.8874    4.8426    3.8550 H       1  UNL1        0.0686
     98 H          -5.4393    4.7842    1.8373 H       1  UNL1        0.0656
     99 H          -6.4090    1.0410   -1.2643 H       1  UNL1        0.0654
    100 H          -4.7546   -0.8313   -1.4458 H       1  UNL1        0.0622
    101 H          -0.6577   -2.8864    0.2153 H       1  UNL1        0.0468
    102 H          -0.3541   -1.6967    1.5903 H       1  UNL1        0.0468
    103 H           0.2073   -3.8983    2.2659 H       1  UNL1        0.0328
    104 H           1.4056   -4.0532    0.8643 H       1  UNL1        0.0328
@<TRIPOS>UNITY_ATOM_ATTR
21 1
charge 1
23 1
charge -1
54 1
charge 1
56 1
charge -1
@<TRIPOS>BOND
     1     1     2    1
     2     2     3    1
     3     3     4   ar
     4     4     5   ar
     5     5     6   ar
     6     6     7   ar
     7     7     8   ar
     8     8     9    1
     9     9    10    1
    10     6    11    1
    11    11    12    1
    12    12    13   ar
    13    13    14   ar
    14    14    15   ar
    15    15    16    1
    16    16    17    1
    17    17    18   ar
    18    18    19   ar
    19    19    20   ar
    20    20    21    1
    21    21    22    2
    22    21    23    1
    23    20    24   ar
    24    24    25   ar
    25    15    26   ar
    26    26    27   ar
    27    11    28    1
    28    28    29   am
    29    29    30    2
    30    29    31   am
    31    31    32    1
    32    32    33    1
    33    33    34    1
    34    34    35   ar
    35    35    36   ar
    36    36    37    1
    37    37    38    1
    38    36    39   ar
    39    39    40    1
    40    40    41    1
    41    39    42   ar
    42    42    43   ar
    43    43    44    1
    44    44    45    1
    45    45    46   ar
    46    46    47   ar
    47    47    48   ar
    48    48    49    1
    49    49    50    1
    50    50    51   ar
    51    51    52   ar
    52    52    53   ar
    53    53    54    1
    54    54    55    2
    55    54    56    1
    56    53    57   ar
    57    57    58   ar
    58    48    59   ar
    59    59    60   ar
    60    28    61    1
    61    61    62    1
    62     8     3   ar
    63    27    12   ar
    64    44    31    1
    65    60    45   ar
    66    62     5    1
    67    25    17   ar
    68    43    34   ar
    69    58    50   ar
    70     1    63    1
    71     1    64    1
    72     1    65    1
    73     4    66    1
    74     7    67    1
    75    10    68    1
    76    10    69    1
    77    10    70    1
    78    11    71    1
    79    13    72    1
    80    14    73    1
    81    18    74    1
    82    19    75    1
    83    24    76    1
    84    25    77    1
    85    26    78    1
    86    27    79    1
    87    32    80    1
    88    32    81    1
    89    33    82    1
    90    33    83    1
    91    35    84    1
    92    38    85    1
    93    38    86    1
    94    38    87    1
    95    41    88    1
    96    41    89    1
    97    41    90    1
    98    42    91    1
    99    44    92    1
   100    46    93    1
   101    47    94    1
   102    51    95    1
   103    52    96    1
   104    57    97    1
   105    58    98    1
   106    59    99    1
   107    60   100    1
   108    61   101    1
   109    61   102    1
   110    62   103    1
   111    62   104    1
@<TRIPOS>MOLECULE
51324115
 90 97 0 0 0
SMALL
GASTEIGER

@<TRIPOS>ATOM
      1 C          -4.1138   -5.9296   -0.0186 C.3     1  UNL1        0.0790
      2 O          -4.6597   -4.6793   -0.3987 O.3     1  UNL1       -0.4914
      3 C          -4.1009   -3.4937    0.0806 C.ar    1  UNL1        0.1618
      4 C          -2.9962   -3.5241    0.9401 C.ar    1  UNL1       -0.0127
      5 C          -2.4318   -2.3969    1.4235 C.ar    1  UNL1       -0.0369
      6 C          -3.0097   -1.1517    1.0242 C.ar    1  UNL1       -0.0157
      7 C          -4.0593   -1.1016    0.2045 C.ar    1  UNL1       -0.0108
      8 C          -4.6260   -2.2844   -0.2830 C.ar    1  UNL1        0.1618
      9 O          -5.7265   -2.2063   -1.1400 O.3     1  UNL1       -0.4914
     10 C          -6.2381   -0.9275   -1.4945 C.3     1  UNL1        0.0790
     11 C          -2.2484   -0.0308    1.6533 C.3     1  UNL1        0.0783
     12 C          -2.7525    1.3037    1.5943 C.ar    1  UNL1       -0.0220
     13 C          -1.9207    2.4072    1.5293 C.ar    1  UNL1       -0.0559
     14 C          -2.4094    3.6871    1.5145 C.ar    1  UNL1       -0.0537
     15 C          -3.7767    3.9528    1.5656 C.ar    1  UNL1       -0.0179
     16 C          -4.2986    5.2225    1.5549 C.ar    1  UNL1       -0.0540
     17 C          -5.6502    5.4811    1.6091 C.ar    1  UNL1       -0.0612
     18 C          -6.5114    4.3897    1.6776 C.ar    1  UNL1       -0.0612
     19 C          -5.9861    3.1168    1.6881 C.ar    1  UNL1       -0.0540
     20 C          -4.6205    2.8696    1.6329 C.ar    1  UNL1       -0.0176
     21 C          -4.1126    1.5872    1.6471 C.ar    1  UNL1       -0.0487
     22 N          -0.9103   -0.2680    1.0737 N.am    1  UNL1       -0.2741
     23 C          -0.5024    0.3680   -0.0578 C.2     1  UNL1        0.3063
     24 O          -1.4519    1.0108   -0.6985 O.2     1  UNL1       -0.2524
     25 N           0.7790    0.4765   -0.6922 N.am    1  UNL1       -0.2741
     26 C           0.7604    1.1721   -1.9589 C.3     1  UNL1        0.0210
     27 C           2.0095    1.8538   -2.3103 C.3     1  UNL1       -0.0113
     28 C           2.9745    1.9600   -1.2060 C.ar    1  UNL1       -0.0369
     29 C           3.9073    3.0181   -1.2585 C.ar    1  UNL1       -0.0127
     30 C           4.8202    3.1186   -0.2496 C.ar    1  UNL1        0.1618
     31 O           5.7554    4.1694   -0.2885 O.3     1  UNL1       -0.4914
     32 C           5.7775    5.1132   -1.3250 C.3     1  UNL1        0.0790
     33 C           4.8717    2.2295    0.8207 C.ar    1  UNL1        0.1618
     34 O           5.8196    2.3938    1.8000 O.3     1  UNL1       -0.4914
     35 C           5.9010    1.5119    2.9031 C.3     1  UNL1        0.0790
     36 C           3.9588    1.2057    0.8590 C.ar    1  UNL1       -0.0108
     37 C           3.0364    1.0951   -0.1483 C.ar    1  UNL1       -0.0157
     38 C           1.9898    0.0078   -0.1335 C.3     1  UNL1        0.0783
     39 C           2.6084   -1.1997   -0.6534 C.ar    1  UNL1       -0.0220
     40 C           3.2218   -2.0375    0.2925 C.ar    1  UNL1       -0.0559
     41 C           3.8339   -3.2085   -0.0764 C.ar    1  UNL1       -0.0537
     42 C           3.8462   -3.5705   -1.4081 C.ar    1  UNL1       -0.0179
     43 C           4.4609   -4.7542   -1.8202 C.ar    1  UNL1       -0.0540
     44 C           4.4646   -5.1013   -3.1635 C.ar    1  UNL1       -0.0612
     45 C           3.8733   -4.3061   -4.1191 C.ar    1  UNL1       -0.0612
     46 C           3.2754   -3.1469   -3.6889 C.ar    1  UNL1       -0.0540
     47 C           3.2497   -2.7583   -2.3379 C.ar    1  UNL1       -0.0176
     48 C           2.6485   -1.6019   -1.9484 C.ar    1  UNL1       -0.0487
     49 C          -0.2202   -1.3256    1.7548 C.3     1  UNL1        0.0210
     50 C          -1.2414   -2.3883    2.2685 C.3     1  UNL1       -0.0113
     51 H          -4.7409   -6.7350   -0.4618 H       1  UNL1        0.0660
     52 H          -3.0768   -5.9675   -0.4275 H       1  UNL1        0.0660
     53 H          -4.0780   -6.0362    1.0716 H       1  UNL1        0.0660
     54 H          -2.6302   -4.5329    1.1870 H       1  UNL1        0.0658
     55 H          -4.4850   -0.1634   -0.1450 H       1  UNL1        0.0659
     56 H          -5.4837   -0.3162   -2.0493 H       1  UNL1        0.0660
     57 H          -7.1020   -1.0525   -2.1738 H       1  UNL1        0.0660
     58 H          -6.6008   -0.3985   -0.5951 H       1  UNL1        0.0660
     59 H          -2.2008   -0.3261    2.7753 H       1  UNL1        0.0601
     60 H          -0.8489    2.2785    1.5120 H       1  UNL1        0.0621
     61 H          -1.7699    4.5755    1.4628 H       1  UNL1        0.0624
     62 H          -3.6167    6.0549    1.5000 H       1  UNL1        0.0624
     63 H          -6.0639    6.4571    1.6015 H       1  UNL1        0.0618
     64 H          -7.5725    4.6065    1.7211 H       1  UNL1        0.0618
     65 H          -6.6553    2.2719    1.7409 H       1  UNL1        0.0624
     66 H          -4.8021    0.7740    1.7501 H       1  UNL1        0.0627
     67 H           0.3714    0.4986   -2.7768 H       1  UNL1        0.0468
     68 H          -0.0443    1.9936   -1.8986 H       1  UNL1        0.0468
     69 H           1.8254    2.8940   -2.7468 H       1  UNL1        0.0328
     70 H           2.5212    1.2484   -3.1265 H       1  UNL1        0.0328
     71 H           3.8429    3.6884   -2.0995 H       1  UNL1        0.0658
     72 H           6.3182    4.6896   -2.1951 H       1  UNL1        0.0660
     73 H           4.7673    5.4364   -1.6552 H       1  UNL1        0.0660
     74 H           6.3806    6.0078   -0.9908 H       1  UNL1        0.0660
     75 H           6.5103    1.9591    3.7182 H       1  UNL1        0.0660
     76 H           4.8749    1.3035    3.2654 H       1  UNL1        0.0660
     77 H           6.4174    0.5612    2.6377 H       1  UNL1        0.0660
     78 H           3.9347    0.4769    1.6552 H       1  UNL1        0.0659
     79 H           1.8012   -0.0853    0.9998 H       1  UNL1        0.0601
     80 H           3.2331   -1.7919    1.3388 H       1  UNL1        0.0621
     81 H           4.3167   -3.8765    0.6390 H       1  UNL1        0.0624
     82 H           4.9168   -5.3595   -1.0503 H       1  UNL1        0.0624
     83 H           4.9486   -6.0227   -3.4437 H       1  UNL1        0.0618
     84 H           3.8826   -4.5878   -5.1642 H       1  UNL1        0.0618
     85 H           2.7932   -2.4792   -4.3980 H       1  UNL1        0.0624
     86 H           2.1860   -1.0025   -2.7180 H       1  UNL1        0.0627
     87 H           0.4695   -1.9070    1.0863 H       1  UNL1        0.0468
     88 H           0.3596   -0.9968    2.6225 H       1  UNL1        0.0468
     89 H          -1.4674   -2.1207    3.3138 H       1  UNL1        0.0328
     90 H          -0.7008   -3.3474    2.2832 H       1  UNL1        0.0328
@<TRIPOS>BOND
     1     1     2    1
     2     2     3    1
     3     3     4   ar
     4     4     5   ar
     5     5     6   ar
     6     6     7   ar
     7     7     8   ar
     8     8     9    1
     9     9    10    1
    10     6    11    1
    11    11    12    1
    12    12    13   ar
    13    13    14   ar
    14    14    15   ar
    15    15    16   ar
    16    16    17   ar
    17    17    18   ar
    18    18    19   ar
    19    19    20   ar
    20    20    21   ar
    21    11    22    1
    22    22    23   am
    23    23    24    2
    24    23    25   am
    25    25    26    1
    26    26    27    1
    27    27    28    1
    28    28    29   ar
    29    29    30   ar
    30    30    31    1
    31    31    32    1
    32    30    33   ar
    33    33    34    1
    34    34    35    1
    35    33    36   ar
    36    36    37   ar
    37    37    38    1
    38    38    39    1
    39    39    40   ar
    40    40    41   ar
    41    41    42   ar
    42    42    43   ar
    43    43    44   ar
    44    44    45   ar
    45    45    46   ar
    46    46    47   ar
    47    47    48   ar
    48    22    49    1
    49    49    50    1
    50     8     3   ar
    51    21    12   ar
    52    38    25    1
    53    48    39   ar
    54    50     5    1
    55    20    15   ar
    56    37    28   ar
    57    47    42   ar
    58     1    51    1
    59     1    52    1
    60     1    53    1
    61     4    54    1
    62     7    55    1
    63    10    56    1
    64    10    57    1
    65    10    58    1
    66    11    59    1
    67    13    60    1
    68    14    61    1
    69    16    62    1
    70    17    63    1
    71    18    64    1
    72    19    65    1
    73    21    66    1
    74    26    67    1
    75    26    68    1
    76    27    69    1
    77    27    70    1
    78    29    71    1
    79    32    72    1
    80    32    73    1
    81    32    74    1
    82    35    75    1
    83    35    76    1
    84    35    77    1
    85    36    78    1
    86    38    79    1
    87    40    80    1
    88    41    81    1
    89    43    82    1
    90    44    83    1
    91    45    84    1
    92    46    85    1
    93    48    86    1
    94    49    87    1
    95    49    88    1
    96    50    89    1
    97    50    90    1
@<TRIPOS>MOLECULE
51324104
 43 45 0 0 0
SMALL
GASTEIGER

@<TRIPOS>ATOM
      1 C           5.3106   -0.0457    1.3561 C.3     1  UNL1        0.0790
      2 O           4.3009    0.7125    0.7246 O.3     1  UNL1       -0.4914
      3 C           3.0868    0.1788    0.3501 C.ar    1  UNL1        0.1618
      4 C           2.7298   -1.1577    0.5521 C.ar    1  UNL1       -0.0128
      5 C           1.5009   -1.6303    0.1549 C.ar    1  UNL1       -0.0375
      6 C           0.5974   -0.8097   -0.4464 C.ar    1  UNL1       -0.0190
      7 C           0.9103    0.5353   -0.6695 C.ar    1  UNL1       -0.0111
      8 C           2.1637    1.0002   -0.2598 C.ar    1  UNL1        0.1618
      9 O           2.5061    2.3295   -0.4661 O.3     1  UNL1       -0.4914
     10 C           1.5952    3.1883   -1.0813 C.3     1  UNL1        0.0790
     11 C          -0.7562   -1.2988   -0.8908 C.3     1  UNL1        0.0653
     12 C          -1.7690   -0.2819   -0.4333 C.ar    1  UNL1        0.0513
     13 C          -1.5127    0.3330    0.7979 C.ar    1  UNL1       -0.0439
     14 C          -2.3810    1.2898    1.2561 C.ar    1  UNL1        0.0163
     15 C          -3.5084    1.6733    0.5437 C.ar    1  UNL1        0.2796
     16 N          -4.3307    2.6679    1.1113 N.pl3   1  UNL1        0.0798
     17 O          -4.0644    3.1880    2.2046 O.2     1  UNL1        0.0414
     18 O          -5.4510    3.0605    0.4240 O.co2   1  UNL1       -0.5760
     19 C          -3.7472    1.0668   -0.6534 C.ar    1  UNL1        0.0929
     20 C          -2.8694    0.0859   -1.1363 C.ar    1  UNL1        0.2846
     21 N          -3.1897   -0.4927   -2.3681 N.pl3   1  UNL1        0.0802
     22 O          -3.8361    0.2156   -3.2001 O.2     1  UNL1        0.0415
     23 O          -2.8173   -1.7723   -2.6670 O.co2   1  UNL1       -0.5760
     24 N          -1.1248   -2.5585   -0.3602 N.3     1  UNL1       -0.3052
     25 C          -0.3466   -3.0265    0.7423 C.3     1  UNL1        0.0007
     26 C           1.1259   -3.0363    0.3670 C.3     1  UNL1       -0.0146
     27 H           5.6587   -0.8664    0.6955 H       1  UNL1        0.0660
     28 H           6.1600    0.6436    1.5932 H       1  UNL1        0.0660
     29 H           4.9497   -0.5286    2.2904 H       1  UNL1        0.0660
     30 H           3.4715   -1.7807    1.0328 H       1  UNL1        0.0658
     31 H           0.1880    1.1581   -1.1425 H       1  UNL1        0.0659
     32 H           0.6768    3.2740   -0.4517 H       1  UNL1        0.0660
     33 H           2.0500    4.1921   -1.2714 H       1  UNL1        0.0660
     34 H           1.2439    2.7953   -2.0759 H       1  UNL1        0.0660
     35 H          -0.7530   -1.2523   -2.0167 H       1  UNL1        0.0562
     36 H          -0.6297    0.0444    1.3752 H       1  UNL1        0.0625
     37 H          -2.1649    1.7606    2.2207 H       1  UNL1        0.0685
     38 H          -4.6128    1.3458   -1.2231 H       1  UNL1        0.0754
     39 H          -2.1447   -2.6575   -0.1570 H       1  UNL1        0.1228
     40 H          -0.6433   -4.0500    1.0287 H       1  UNL1        0.0427
     41 H          -0.4904   -2.3393    1.6040 H       1  UNL1        0.0427
     42 H           1.7396   -3.5355    1.1432 H       1  UNL1        0.0326
     43 H           1.1777   -3.6188   -0.5979 H       1  UNL1        0.0326
@<TRIPOS>UNITY_ATOM_ATTR
16 1
charge 1
18 1
charge -1
21 1
charge 1
23 1
charge -1
@<TRIPOS>BOND
     1     1     2    1
     2     2     3    1
     3     3     4   ar
     4     4     5   ar
     5     5     6   ar
     6     6     7   ar
     7     7     8   ar
     8     8     9    1
     9     9    10    1
    10     6    11    1
    11    11    12    1
    12    12    13   ar
    13    13    14   ar
    14    14    15   ar
    15    15    16    1
    16    16    17    2
    17    16    18    1
    18    15    19   ar
    19    19    20   ar
    20    20    21    1
    21    21    22    2
    22    21    23    1
    23    11    24    1
    24    24    25    1
    25    25    26    1
    26     8     3   ar
    27    20    12   ar
    28    26     5    1
    29     1    27    1
    30     1    28    1
    31     1    29    1
    32     4    30    1
    33     7    31    1
    34    10    32    1
    35    10    33    1
    36    10    34    1
    37    11    35    1
    38    13    36    1
    39    14    37    1
    40    19    38    1
    41    24    39    1
    42    25    40    1
    43    25    41    1
    44    26    42    1
    45    26    43    1
@<TRIPOS>MOLECULE
51324130
 47 49 0 0 0
SMALL
GASTEIGER

@<TRIPOS>ATOM
      1 C           5.7279   -1.2977    0.2326 C.3     1  UNL1        0.0790
      2 O           4.4496   -1.8753    0.2157 O.3     1  UNL1       -0.4914
      3 C           3.2737   -1.1710    0.3564 C.ar    1  UNL1        0.1618
      4 C           3.2224    0.1956    0.5314 C.ar    1  UNL1       -0.0127
      5 C           2.0043    0.8591    0.6688 C.ar    1  UNL1       -0.0369
      6 C           0.8232    0.1678    0.6334 C.ar    1  UNL1       -0.0157
      7 C           0.8701   -1.2216    0.4556 C.ar    1  UNL1       -0.0108
      8 C           2.0820   -1.8621    0.3214 C.ar    1  UNL1        0.1618
      9 O           2.1159   -3.2438    0.1451 O.3     1  UNL1       -0.4914
     10 C           0.9357   -4.0146    0.0995 C.3     1  UNL1        0.0790
     11 C          -0.4586    0.8797    0.7849 C.3     1  UNL1        0.0768
     12 C          -1.5802    0.1435    0.1537 C.ar    1  UNL1       -0.0226
     13 C          -1.8754    0.1913   -1.1921 C.ar    1  UNL1       -0.0559
     14 C          -2.9342   -0.5213   -1.7186 C.ar    1  UNL1       -0.0498
     15 C          -3.7376   -1.3086   -0.9185 C.ar    1  UNL1        0.0548
     16 C          -4.8795   -2.0899   -1.4236 C.3     1  UNL1        0.4174
     17 F          -4.5169   -3.4277   -1.3892 F       1  UNL1       -0.1659
     18 F          -5.2733   -1.7128   -2.6840 F       1  UNL1       -0.1659
     19 F          -5.9106   -1.9478   -0.4971 F       1  UNL1       -0.1659
     20 C          -3.4518   -1.3634    0.4256 C.ar    1  UNL1       -0.0498
     21 C          -2.3823   -0.6418    0.9487 C.ar    1  UNL1       -0.0559
     22 N          -0.3646    2.2356    0.3526 N.am    1  UNL1       -0.2903
     23 C          -1.5948    2.9370    0.0817 C.2     1  UNL1        0.2132
     24 C          -1.6175    4.3512   -0.3786 C.3     1  UNL1        0.0124
     25 O          -2.7236    2.3905    0.2197 O.2     1  UNL1       -0.2759
     26 C           0.8527    2.9864    0.1640 C.3     1  UNL1        0.0196
     27 C           2.0307    2.3170    0.8470 C.3     1  UNL1       -0.0113
     28 H           6.5053   -2.0253    0.5546 H       1  UNL1        0.0660
     29 H           5.8121   -0.4101    0.8837 H       1  UNL1        0.0660
     30 H           6.0415   -0.9559   -0.7956 H       1  UNL1        0.0660
     31 H           4.1654    0.7491    0.5599 H       1  UNL1        0.0658
     32 H          -0.0618   -1.7390    0.4311 H       1  UNL1        0.0659
     33 H           0.1923   -3.7143    0.8726 H       1  UNL1        0.0660
     34 H           1.2244   -5.0964    0.2117 H       1  UNL1        0.0660
     35 H           0.4451   -3.9617   -0.9078 H       1  UNL1        0.0660
     36 H          -0.6902    0.9267    1.8918 H       1  UNL1        0.0601
     37 H          -1.2527    0.8021   -1.8156 H       1  UNL1        0.0621
     38 H          -3.1784   -0.4935   -2.7747 H       1  UNL1        0.0623
     39 H          -4.0693   -1.9787    1.0903 H       1  UNL1        0.0623
     40 H          -2.1898   -0.7127    2.0196 H       1  UNL1        0.0621
     41 H          -0.7345    4.5647   -1.0497 H       1  UNL1        0.0323
     42 H          -1.6302    5.0671    0.4709 H       1  UNL1        0.0323
     43 H          -2.5057    4.5397   -1.0101 H       1  UNL1        0.0323
     44 H           0.7750    4.0081    0.5941 H       1  UNL1        0.0468
     45 H           1.0373    3.1221   -0.9238 H       1  UNL1        0.0468
     46 H           2.9388    2.7155    0.3498 H       1  UNL1        0.0328
     47 H           2.0879    2.6372    1.9109 H       1  UNL1        0.0328
@<TRIPOS>BOND
     1     1     2    1
     2     2     3    1
     3     3     4   ar
     4     4     5   ar
     5     5     6   ar
     6     6     7   ar
     7     7     8   ar
     8     8     9    1
     9     9    10    1
    10     6    11    1
    11    11    12    1
    12    12    13   ar
    13    13    14   ar
    14    14    15   ar
    15    15    16    1
    16    16    17    1
    17    16    18    1
    18    16    19    1
    19    15    20   ar
    20    20    21   ar
    21    11    22    1
    22    22    23   am
    23    23    24    1
    24    23    25    2
    25    22    26    1
    26    26    27    1
    27     8     3   ar
    28    21    12   ar
    29    27     5    1
    30     1    28    1
    31     1    29    1
    32     1    30    1
    33     4    31    1
    34     7    32    1
    35    10    33    1
    36    10    34    1
    37    10    35    1
    38    11    36    1
    39    13    37    1
    40    14    38    1
    41    20    39    1
    42    21    40    1
    43    24    41    1
    44    24    42    1
    45    24    43    1
    46    26    44    1
    47    26    45    1
    48    27    46    1
    49    27    47    1
@<TRIPOS>MOLECULE
51324120
 39 41 0 0 0
SMALL
GASTEIGER

@<TRIPOS>ATOM
      1 C           5.0962   -0.3417   -0.8759 C.3     1  UNL1        0.0790
      2 O           4.0744    0.5370   -0.4735 O.3     1  UNL1       -0.4914
      3 C           2.7351    0.1846   -0.4647 C.ar    1  UNL1        0.1618
      4 C           2.3600   -1.0741   -0.8622 C.ar    1  UNL1       -0.0128
      5 C           1.0013   -1.3734   -0.8332 C.ar    1  UNL1       -0.0375
      6 C           0.0490   -0.4587   -0.4252 C.ar    1  UNL1       -0.0192
      7 C           0.4382    0.7878   -0.0333 C.ar    1  UNL1       -0.0111
      8 C           1.7810    1.0986   -0.0568 C.ar    1  UNL1        0.1618
      9 O           2.2339    2.3488    0.3302 O.3     1  UNL1       -0.4914
     10 C           1.2775    3.3012    0.7515 C.3     1  UNL1        0.0790
     11 C          -1.3620   -0.9104   -0.4437 C.3     1  UNL1        0.0588
     12 C          -2.2664    0.0216    0.2598 C.ar    1  UNL1       -0.0260
     13 C          -2.9900    0.9379   -0.4763 C.ar    1  UNL1       -0.0554
     14 C          -3.8508    1.8335    0.1259 C.ar    1  UNL1       -0.0431
     15 C          -4.0268    1.8527    1.4947 C.ar    1  UNL1        0.0410
     16 CL         -5.1156    2.9832    2.2749 Cl      1  UNL1       -0.0835
     17 C          -3.2982    0.9318    2.2232 C.ar    1  UNL1       -0.0431
     18 C          -2.4354    0.0333    1.6260 C.ar    1  UNL1       -0.0554
     19 N          -1.5372   -2.2308    0.0862 N.3     1  UNL1       -0.3054
     20 C          -0.4869   -3.1539   -0.1930 C.3     1  UNL1        0.0007
     21 C           0.4883   -2.7117   -1.2444 C.3     1  UNL1       -0.0146
     22 H           4.8398   -0.8822   -1.7943 H       1  UNL1        0.0660
     23 H           6.0110    0.2677   -1.0820 H       1  UNL1        0.0660
     24 H           5.3649   -1.0059   -0.0304 H       1  UNL1        0.0660
     25 H           3.0851   -1.8073   -1.1855 H       1  UNL1        0.0658
     26 H          -0.2855    1.5192    0.2893 H       1  UNL1        0.0659
     27 H           0.7094    2.9345    1.6404 H       1  UNL1        0.0660
     28 H           0.5232    3.4427   -0.0555 H       1  UNL1        0.0660
     29 H           1.7595    4.2633    0.9942 H       1  UNL1        0.0660
     30 H          -1.6547   -0.9585   -1.5267 H       1  UNL1        0.0560
     31 H          -2.8960    0.9732   -1.5548 H       1  UNL1        0.0621
     32 H          -4.4039    2.5396   -0.4805 H       1  UNL1        0.0632
     33 H          -3.4489    0.9597    3.3088 H       1  UNL1        0.0632
     34 H          -1.8832   -0.6687    2.2097 H       1  UNL1        0.0621
     35 H          -2.4403   -2.6204   -0.2632 H       1  UNL1        0.1228
     36 H          -0.8509   -4.1649   -0.4874 H       1  UNL1        0.0427
     37 H           0.1174   -3.3180    0.7476 H       1  UNL1        0.0427
     38 H           1.2983   -3.4674   -1.2816 H       1  UNL1        0.0326
     39 H          -0.0108   -2.6041   -2.2364 H       1  UNL1        0.0326
@<TRIPOS>BOND
     1     1     2    1
     2     2     3    1
     3     3     4   ar
     4     4     5   ar
     5     5     6   ar
     6     6     7   ar
     7     7     8   ar
     8     8     9    1
     9     9    10    1
    10     6    11    1
    11    11    12    1
    12    12    13   ar
    13    13    14   ar
    14    14    15   ar
    15    15    16    1
    16    15    17   ar
    17    17    18   ar
    18    11    19    1
    19    19    20    1
    20    20    21    1
    21     8     3   ar
    22    18    12   ar
    23    21     5    1
    24     1    22    1
    25     1    23    1
    26     1    24    1
    27     4    25    1
    28     7    26    1
    29    10    27    1
    30    10    28    1
    31    10    29    1
    32    11    30    1
    33    13    31    1
    34    14    32    1
    35    17    33    1
    36    18    34    1
    37    19    35    1
    38    20    36    1
    39    20    37    1
    40    21    38    1
    41    21    39    1
@<TRIPOS>MOLECULE
51324121
 50 53 0 0 0
SMALL
GASTEIGER

@<TRIPOS>ATOM
      1 C          -6.1136   -0.6311   -1.6973 C.3     1  UNL1        0.0790
      2 O          -5.0200    0.2320   -1.5865 O.3     1  UNL1       -0.4914
      3 C          -3.9318   -0.0169   -0.7560 C.ar    1  UNL1        0.1618
      4 C          -3.9366   -1.1729   -0.0074 C.ar    1  UNL1       -0.0128
      5 C          -2.8637   -1.4079    0.8046 C.ar    1  UNL1       -0.0374
      6 C          -1.7925   -0.5132    0.8811 C.ar    1  UNL1       -0.0177
      7 C          -1.7827    0.6382    0.1386 C.ar    1  UNL1       -0.0110
      8 C          -2.8764    0.8667   -0.6820 C.ar    1  UNL1        0.1618
      9 O          -2.9157    2.0040   -1.4456 O.3     1  UNL1       -0.4914
     10 C          -1.8783    2.9594   -1.4293 C.3     1  UNL1        0.0790
     11 C          -0.7078   -0.9162    1.8101 C.3     1  UNL1        0.0761
     12 C           0.4467   -0.0085    1.7696 C.ar    1  UNL1        0.0633
     13 C           0.5855    0.9862    2.7131 C.ar    1  UNL1       -0.0385
     14 C           1.7044    1.8233    2.6280 C.ar    1  UNL1       -0.0580
     15 C           2.6232    1.6325    1.6175 C.ar    1  UNL1       -0.0357
     16 C           2.4603    0.6289    0.6856 C.ar    1  UNL1        0.0716
     17 C           3.4177    0.4086   -0.3901 C.ar    1  UNL1        0.0068
     18 C           3.1817   -0.6173   -1.2814 C.ar    1  UNL1       -0.0521
     19 C           4.0462   -0.8925   -2.3345 C.ar    1  UNL1       -0.0547
     20 C           5.1660   -0.1346   -2.5053 C.ar    1  UNL1        0.0156
     21 C           5.4129    0.8932   -1.6215 C.ar    1  UNL1        0.2738
     22 N           6.5860    1.6775   -1.8108 N.pl3   1  UNL1        0.0796
     23 O           7.3714    1.4456   -2.7480 O.2     1  UNL1        0.0414
     24 O           6.8964    2.7188   -0.9685 O.co2   1  UNL1       -0.5760
     25 C           4.5353    1.1600   -0.5659 C.ar    1  UNL1        0.0247
     26 N           1.3672   -0.1498    0.8107 N.ar    1  UNL1       -0.2497
     27 N          -0.2849   -2.2915    1.6059 N.3     1  UNL1       -0.3042
     28 C          -1.3626   -3.2010    1.3700 C.3     1  UNL1        0.0008
     29 C          -2.7267   -2.6183    1.6751 C.3     1  UNL1       -0.0146
     30 H          -6.4628   -1.0101   -0.7068 H       1  UNL1        0.0660
     31 H          -5.8856   -1.4842   -2.3809 H       1  UNL1        0.0660
     32 H          -6.9534   -0.0519   -2.1651 H       1  UNL1        0.0660
     33 H          -4.7455   -1.8897   -0.0384 H       1  UNL1        0.0658
     34 H          -0.9437    1.3102    0.2171 H       1  UNL1        0.0659
     35 H          -2.1919    3.8995   -1.9202 H       1  UNL1        0.0660
     36 H          -1.6385    3.1447   -0.3442 H       1  UNL1        0.0660
     37 H          -1.0091    2.5454   -1.9792 H       1  UNL1        0.0660
     38 H          -1.1395   -0.8783    2.8316 H       1  UNL1        0.0576
     39 H          -0.1401    1.1330    3.5069 H       1  UNL1        0.0636
     40 H           1.7867    2.5941    3.3813 H       1  UNL1        0.0619
     41 H           3.4653    2.3080    1.6022 H       1  UNL1        0.0639
     42 H           2.3090   -1.2685   -1.2131 H       1  UNL1        0.0624
     43 H           3.8405   -1.7132   -3.0328 H       1  UNL1        0.0620
     44 H           5.8263   -0.3698   -3.3365 H       1  UNL1        0.0685
     45 H           4.7563    1.9581    0.0947 H       1  UNL1        0.0692
     46 H           0.2996   -2.5406    2.4361 H       1  UNL1        0.1229
     47 H          -1.1903   -4.1689    1.8993 H       1  UNL1        0.0427
     48 H          -1.3721   -3.4181    0.2613 H       1  UNL1        0.0427
     49 H          -3.4915   -3.3664    1.4824 H       1  UNL1        0.0326
     50 H          -2.7272   -2.2365    2.7229 H       1  UNL1        0.0326
@<TRIPOS>UNITY_ATOM_ATTR
22 1
charge 1
24 1
charge -1
@<TRIPOS>BOND
     1     1     2    1
     2     2     3    1
     3     3     4   ar
     4     4     5   ar
     5     5     6   ar
     6     6     7   ar
     7     7     8   ar
     8     8     9    1
     9     9    10    1
    10     6    11    1
    11    11    12    1
    12    12    13   ar
    13    13    14   ar
    14    14    15   ar
    15    15    16   ar
    16    16    17    1
    17    17    18   ar
    18    18    19   ar
    19    19    20   ar
    20    20    21   ar
    21    21    22    1
    22    22    23    2
    23    22    24    1
    24    21    25   ar
    25    16    26   ar
    26    11    27    1
    27    27    28    1
    28    28    29    1
    29     8     3   ar
    30    26    12   ar
    31    29     5    1
    32    25    17   ar
    33     1    30    1
    34     1    31    1
    35     1    32    1
    36     4    33    1
    37     7    34    1
    38    10    35    1
    39    10    36    1
    40    10    37    1
    41    11    38    1
    42    13    39    1
    43    14    40    1
    44    15    41    1
    45    18    42    1
    46    19    43    1
    47    20    44    1
    48    25    45    1
    49    27    46    1
    50    28    47    1
    51    28    48    1
    52    29    49    1
    53    29    50    1
@<TRIPOS>MOLECULE
51324117
 69 72 0 0 0
SMALL
GASTEIGER

@<TRIPOS>ATOM
      1 C           3.2581   -4.2195    1.5720 C.3     1  UNL1        0.0790
      2 O           4.2644   -3.2472    1.3714 O.3     1  UNL1       -0.4915
      3 C           3.8953   -1.9328    1.1380 C.ar    1  UNL1        0.1615
      4 C           2.5659   -1.5785    1.1021 C.ar    1  UNL1       -0.0160
      5 C           2.2061   -0.2570    0.8672 C.ar    1  UNL1       -0.0548
      6 C           3.1459    0.7274    0.6657 C.ar    1  UNL1       -0.0422
      7 C           2.7508    2.1282    0.4159 C.3     1  UNL1       -0.0119
      8 C           2.5715    2.4425   -1.0473 C.3     1  UNL1        0.0170
      9 N           1.5666    1.6552   -1.6982 N.am    1  UNL1       -0.2989
     10 C           0.1750    1.6672   -1.2863 C.2     1  UNL1        0.3030
     11 O          -0.0244    2.4506   -0.2981 O.2     1  UNL1       -0.2526
     12 N          -0.7873    0.9033   -1.9198 N.am    1  UNL1       -0.2743
     13 C          -0.5450   -0.0407   -3.0085 C.3     1  UNL1        0.0210
     14 C          -1.4551   -1.2647   -2.8102 C.3     1  UNL1       -0.0113
     15 C          -1.8623   -1.4217   -1.3910 C.ar    1  UNL1       -0.0369
     16 C          -1.8270   -2.6331   -0.7825 C.ar    1  UNL1       -0.0127
     17 C          -2.1506   -2.8070    0.5585 C.ar    1  UNL1        0.1618
     18 O          -2.1103   -4.0698    1.1754 O.3     1  UNL1       -0.4914
     19 C          -1.7239   -5.1643    0.3688 C.3     1  UNL1        0.0790
     20 C          -2.5133   -1.6812    1.2556 C.ar    1  UNL1        0.1618
     21 O          -2.8511   -1.7598    2.5964 O.3     1  UNL1       -0.4914
     22 C          -3.2250   -0.6124    3.3232 C.3     1  UNL1        0.0790
     23 C          -2.5521   -0.4318    0.6372 C.ar    1  UNL1       -0.0108
     24 C          -2.2456   -0.2677   -0.6445 C.ar    1  UNL1       -0.0157
     25 C          -2.2039    0.9390   -1.5044 C.3     1  UNL1        0.0785
     26 C          -2.7264    2.1871   -1.1006 C.ar    1  UNL1       -0.0162
     27 C          -2.1718    3.3477   -1.6627 C.ar    1  UNL1       -0.0561
     28 C          -2.6401    4.6025   -1.3616 C.ar    1  UNL1       -0.0550
     29 C          -3.6895    4.7492   -0.4814 C.ar    1  UNL1        0.0156
     30 C          -4.2348    3.6209    0.0674 C.ar    1  UNL1        0.2735
     31 N          -5.3274    3.7522    0.9848 N.pl3   1  UNL1        0.0796
     32 O          -5.7706    4.8641    1.2763 O.2     1  UNL1        0.0414
     33 O          -5.9060    2.6489    1.5602 O.co2   1  UNL1       -0.5760
     34 C          -3.7641    2.3566   -0.2357 C.ar    1  UNL1        0.0208
     35 C           4.4705    0.3477    0.7065 C.ar    1  UNL1       -0.0131
     36 C           4.8693   -0.9624    0.9384 C.ar    1  UNL1        0.1617
     37 O           6.2001   -1.2952    0.9705 O.3     1  UNL1       -0.4914
     38 C           7.1798   -0.2993    0.7661 C.3     1  UNL1        0.0790
     39 H           2.7006   -4.4156    0.6541 H       1  UNL1        0.0660
     40 H           2.5497   -3.8316    2.3587 H       1  UNL1        0.0660
     41 H           3.7146   -5.1511    2.0075 H       1  UNL1        0.0660
     42 H           1.7812   -2.2990    1.2516 H       1  UNL1        0.0655
     43 H           1.1577   -0.0213    0.8478 H       1  UNL1        0.0621
     44 H           1.8794    2.3461    1.0389 H       1  UNL1        0.0328
     45 H           3.5763    2.7806    0.7858 H       1  UNL1        0.0328
     46 H           2.3795    3.5350   -1.1166 H       1  UNL1        0.0466
     47 H           3.5429    2.2785   -1.5506 H       1  UNL1        0.0466
     48 H           1.8180    1.0412   -2.5032 H       1  UNL1        0.1502
     49 H           0.4986   -0.3680   -3.0805 H       1  UNL1        0.0468
     50 H          -0.8331    0.4520   -3.9512 H       1  UNL1        0.0468
     51 H          -2.3713   -1.1337   -3.4157 H       1  UNL1        0.0328
     52 H          -0.9444   -2.1901   -3.1184 H       1  UNL1        0.0328
     53 H          -1.5414   -3.5550   -1.3063 H       1  UNL1        0.0658
     54 H          -2.4303   -5.2152   -0.5092 H       1  UNL1        0.0660
     55 H          -1.7106   -6.1146    0.9146 H       1  UNL1        0.0660
     56 H          -0.7132   -4.9759   -0.0994 H       1  UNL1        0.0660
     57 H          -2.3780    0.1146    3.4218 H       1  UNL1        0.0660
     58 H          -4.0337   -0.0431    2.7859 H       1  UNL1        0.0660
     59 H          -3.6425   -0.9047    4.3093 H       1  UNL1        0.0660
     60 H          -2.8019    0.4507    1.2355 H       1  UNL1        0.0659
     61 H          -2.7758    0.6363   -2.4574 H       1  UNL1        0.0602
     62 H          -1.3503    3.3035   -2.3912 H       1  UNL1        0.0621
     63 H          -2.1801    5.4838   -1.8204 H       1  UNL1        0.0620
     64 H          -4.0544    5.7581   -0.2480 H       1  UNL1        0.0685
     65 H          -4.3074    1.5303    0.2248 H       1  UNL1        0.0689
     66 H           5.2384    1.0958    0.5523 H       1  UNL1        0.0658
     67 H           8.2016   -0.6984    0.9464 H       1  UNL1        0.0660
     68 H           7.1699    0.0855   -0.2763 H       1  UNL1        0.0660
     69 H           7.0484    0.5811    1.4279 H       1  UNL1        0.0660
@<TRIPOS>UNITY_ATOM_ATTR
31 1
charge 1
33 1
charge -1
@<TRIPOS>BOND
     1     1     2    1
     2     2     3    1
     3     3     4   ar
     4     4     5   ar
     5     5     6   ar
     6     6     7    1
     7     7     8    1
     8     8     9    1
     9     9    10   am
    10    10    11    2
    11    10    12   am
    12    12    13    1
    13    13    14    1
    14    14    15    1
    15    15    16   ar
    16    16    17   ar
    17    17    18    1
    18    18    19    1
    19    17    20   ar
    20    20    21    1
    21    21    22    1
    22    20    23   ar
    23    23    24   ar
    24    24    25    1
    25    25    26    1
    26    26    27   ar
    27    27    28   ar
    28    28    29   ar
    29    29    30   ar
    30    30    31    1
    31    31    32    2
    32    31    33    1
    33    30    34   ar
    34     6    35   ar
    35    35    36   ar
    36    36    37    1
    37    37    38    1
    38    36     3   ar
    39    25    12    1
    40    34    26   ar
    41    24    15   ar
    42     1    39    1
    43     1    40    1
    44     1    41    1
    45     4    42    1
    46     5    43    1
    47     7    44    1
    48     7    45    1
    49     8    46    1
    50     8    47    1
    51     9    48    1
    52    13    49    1
    53    13    50    1
    54    14    51    1
    55    14    52    1
    56    16    53    1
    57    19    54    1
    58    19    55    1
    59    19    56    1
    60    22    57    1
    61    22    58    1
    62    22    59    1
    63    23    60    1
    64    25    61    1
    65    27    62    1
    66    28    63    1
    67    29    64    1
    68    34    65    1
    69    35    66    1
    70    38    67    1
    71    38    68    1
    72    38    69    1
@<TRIPOS>MOLECULE
51324108
 56 57 0 0 0
SMALL
GASTEIGER

@<TRIPOS>ATOM
      1 C          -4.6883    3.0408   -1.1406 C.3     1  UNL1        0.0790
      2 O          -5.2987    1.7838   -1.3251 O.3     1  UNL1       -0.4915
      3 C          -4.6001    0.5961   -1.3127 C.ar    1  UNL1        0.1615
      4 C          -3.2414    0.6210   -1.1121 C.ar    1  UNL1       -0.0160
      5 C          -2.4890   -0.5520   -1.0905 C.ar    1  UNL1       -0.0548
      6 C          -3.1402   -1.7427   -1.2753 C.ar    1  UNL1       -0.0422
      7 C          -2.3325   -3.0035   -1.2445 C.3     1  UNL1       -0.0119
      8 C          -2.2779   -3.6019    0.1410 C.3     1  UNL1        0.0170
      9 N          -1.6808   -2.7397    1.1125 N.am    1  UNL1       -0.2991
     10 C          -0.3290   -2.2674    1.0186 C.2     1  UNL1        0.2997
     11 O           0.3621   -2.6337    0.0294 O.2     1  UNL1       -0.2529
     12 N           0.2278   -1.4106    2.0057 N.am    1  UNL1       -0.2991
     13 C           1.5850   -0.9153    1.9381 C.3     1  UNL1        0.0170
     14 C           1.8527   -0.1058    0.7302 C.3     1  UNL1       -0.0119
     15 C           3.2002    0.4336    0.5860 C.ar    1  UNL1       -0.0422
     16 C           4.2484   -0.1659   -0.0331 C.ar    1  UNL1       -0.0548
     17 C           5.4896    0.4281   -0.1164 C.ar    1  UNL1       -0.0160
     18 C           5.7331    1.6843    0.4353 C.ar    1  UNL1        0.1615
     19 O           6.9791    2.2952    0.3590 O.3     1  UNL1       -0.4915
     20 C           8.0809    1.7013   -0.2734 C.3     1  UNL1        0.0790
     21 C           4.6746    2.2987    1.0650 C.ar    1  UNL1        0.1617
     22 O           4.9242    3.5548    1.6148 O.3     1  UNL1       -0.4914
     23 C           3.8794    4.2454    2.2783 C.3     1  UNL1        0.0790
     24 C           3.4338    1.6912    1.1414 C.ar    1  UNL1       -0.0131
     25 C          -4.5166   -1.8023   -1.4813 C.ar    1  UNL1       -0.0131
     26 C          -5.2171   -0.6237   -1.4949 C.ar    1  UNL1        0.1617
     27 O          -6.6003   -0.7017   -1.7033 O.3     1  UNL1       -0.4914
     28 C          -7.2480   -1.9204   -1.8903 C.3     1  UNL1        0.0790
     29 H          -4.1946    3.2977   -2.1191 H       1  UNL1        0.0660
     30 H          -5.5019    3.7986   -0.9845 H       1  UNL1        0.0660
     31 H          -3.9778    3.0306   -0.3012 H       1  UNL1        0.0660
     32 H          -2.7277    1.5635   -0.9660 H       1  UNL1        0.0655
     33 H          -1.4091   -0.4671   -0.9308 H       1  UNL1        0.0621
     34 H          -2.8383   -3.7631   -1.8932 H       1  UNL1        0.0328
     35 H          -1.3054   -2.8508   -1.5901 H       1  UNL1        0.0328
     36 H          -3.3227   -3.8656    0.4740 H       1  UNL1        0.0466
     37 H          -1.7230   -4.5667    0.0896 H       1  UNL1        0.0466
     38 H          -2.2380   -2.4278    1.9360 H       1  UNL1        0.1502
     39 H          -0.4185   -1.1569    2.7979 H       1  UNL1        0.1502
     40 H           2.2470   -1.7678    2.1063 H       1  UNL1        0.0466
     41 H           1.7327   -0.2406    2.8337 H       1  UNL1        0.0466
     42 H           1.1350    0.7382    0.6614 H       1  UNL1        0.0328
     43 H           1.6621   -0.7287   -0.1700 H       1  UNL1        0.0328
     44 H           4.1097   -1.1217   -0.4669 H       1  UNL1        0.0621
     45 H           6.2913   -0.0931   -0.6214 H       1  UNL1        0.0655
     46 H           8.1066    0.6164   -0.0226 H       1  UNL1        0.0660
     47 H           8.0680    1.8233   -1.3604 H       1  UNL1        0.0660
     48 H           9.0365    2.1692    0.1060 H       1  UNL1        0.0660
     49 H           3.4142    3.5581    3.0143 H       1  UNL1        0.0660
     50 H           4.2774    5.1708    2.7424 H       1  UNL1        0.0660
     51 H           3.1044    4.4574    1.5055 H       1  UNL1        0.0660
     52 H           2.6574    2.2402    1.6522 H       1  UNL1        0.0658
     53 H          -4.9295   -2.7814   -1.6162 H       1  UNL1        0.0658
     54 H          -6.9022   -2.6684   -1.1364 H       1  UNL1        0.0660
     55 H          -8.3502   -1.8490   -1.8056 H       1  UNL1        0.0660
     56 H          -7.0143   -2.3025   -2.8947 H       1  UNL1        0.0660
@<TRIPOS>BOND
     1     1     2    1
     2     2     3    1
     3     3     4   ar
     4     4     5   ar
     5     5     6   ar
     6     6     7    1
     7     7     8    1
     8     8     9    1
     9     9    10   am
    10    10    11    2
    11    10    12   am
    12    12    13    1
    13    13    14    1
    14    14    15    1
    15    15    16   ar
    16    16    17   ar
    17    17    18   ar
    18    18    19    1
    19    19    20    1
    20    18    21   ar
    21    21    22    1
    22    22    23    1
    23    21    24   ar
    24     6    25   ar
    25    25    26   ar
    26    26    27    1
    27    27    28    1
    28    26     3   ar
    29    24    15   ar
    30     1    29    1
    31     1    30    1
    32     1    31    1
    33     4    32    1
    34     5    33    1
    35     7    34    1
    36     7    35    1
    37     8    36    1
    38     8    37    1
    39     9    38    1
    40    12    39    1
    41    13    40    1
    42    13    41    1
    43    14    42    1
    44    14    43    1
    45    16    44    1
    46    17    45    1
    47    20    46    1
    48    20    47    1
    49    20    48    1
    50    23    49    1
    51    23    50    1
    52    23    51    1
    53    24    52    1
    54    25    53    1
    55    28    54    1
    56    28    55    1
    57    28    56    1
@<TRIPOS>MOLECULE
51027968
 52 53 0 0 0
SMALL
GASTEIGER

@<TRIPOS>ATOM
      1 C           5.0425    3.5681   -1.8273 C.3     1  UNL1       -0.0397
      2 C           4.6964    2.2561   -1.2376 C.ar    1  UNL1       -0.0487
      3 C           5.4692    1.7013   -0.2175 C.ar    1  UNL1       -0.0585
      4 C           5.1365    0.4813    0.3220 C.ar    1  UNL1       -0.0563
      5 C           4.0212   -0.2257   -0.1391 C.ar    1  UNL1       -0.0235
      6 C           3.6404   -1.5360    0.4205 C.3     1  UNL1       -0.0198
      7 C           2.6955   -1.4153    1.5890 C.3     1  UNL1       -0.0586
      8 C           4.8281   -2.3894    0.7928 C.3     1  UNL1       -0.0586
      9 C           3.2644    0.3358   -1.1504 C.ar    1  UNL1        0.0384
     10 N           2.1350   -0.3807   -1.6169 N.am    1  UNL1       -0.2689
     11 C           0.8458   -0.2207   -1.0548 C.2     1  UNL1        0.3081
     12 O           0.7304    0.6040   -0.0974 O.2     1  UNL1       -0.2522
     13 N          -0.2865   -0.9605   -1.5464 N.am    1  UNL1       -0.2692
     14 C          -1.5425   -0.7319   -0.9174 C.ar    1  UNL1        0.0348
     15 C          -1.9773   -1.4571    0.1679 C.ar    1  UNL1       -0.0402
     16 C          -3.2193   -1.2060    0.7629 C.ar    1  UNL1       -0.0563
     17 C          -4.0337   -0.2190    0.2660 C.ar    1  UNL1       -0.0419
     18 C          -5.3346    0.0569    0.8753 C.3     1  UNL1       -0.0127
     19 C          -5.1441    1.0983    1.9559 C.3     1  UNL1       -0.0560
     20 C          -6.3523    0.5720   -0.1125 C.3     1  UNL1       -0.0560
     21 C          -5.9057   -1.2370    1.4638 C.3     1  UNL1       -0.0560
     22 C          -3.6067    0.5071   -0.8148 C.ar    1  UNL1       -0.0563
     23 C          -2.3641    0.2582   -1.4125 C.ar    1  UNL1       -0.0402
     24 C           3.6012    1.5497   -1.6822 C.ar    1  UNL1       -0.0372
     25 H           5.5919    4.2278   -1.1079 H       1  UNL1        0.0278
     26 H           5.6542    3.4748   -2.7488 H       1  UNL1        0.0278
     27 H           4.0895    4.1037   -2.1043 H       1  UNL1        0.0278
     28 H           6.3389    2.2020    0.1760 H       1  UNL1        0.0620
     29 H           5.7377    0.0626    1.1069 H       1  UNL1        0.0621
     30 H           3.0823   -2.1150   -0.3690 H       1  UNL1        0.0344
     31 H           2.6184   -0.3521    1.9488 H       1  UNL1        0.0235
     32 H           1.6600   -1.7132    1.3350 H       1  UNL1        0.0235
     33 H           3.0045   -2.0126    2.4497 H       1  UNL1        0.0235
     34 H           5.4288   -2.6282   -0.1094 H       1  UNL1        0.0235
     35 H           4.4247   -3.3567    1.1581 H       1  UNL1        0.0235
     36 H           5.4997   -1.9203    1.5223 H       1  UNL1        0.0235
     37 H           2.2355   -1.0699   -2.4182 H       1  UNL1        0.1564
     38 H          -0.1667   -1.6388   -2.3413 H       1  UNL1        0.1564
     39 H          -1.3637   -2.2295    0.5733 H       1  UNL1        0.0636
     40 H          -3.5799   -1.7637    1.6159 H       1  UNL1        0.0621
     41 H          -5.7349    2.0154    1.7330 H       1  UNL1        0.0238
     42 H          -4.0829    1.4203    2.0421 H       1  UNL1        0.0238
     43 H          -5.4865    0.7118    2.9248 H       1  UNL1        0.0238
     44 H          -6.0883    1.5349   -0.5558 H       1  UNL1        0.0238
     45 H          -6.5188   -0.2411   -0.8549 H       1  UNL1        0.0238
     46 H          -7.3178    0.6812    0.4437 H       1  UNL1        0.0238
     47 H          -5.4717   -1.3842    2.4655 H       1  UNL1        0.0238
     48 H          -6.9941   -1.0631    1.5647 H       1  UNL1        0.0238
     49 H          -5.6967   -2.0443    0.7578 H       1  UNL1        0.0238
     50 H          -4.1868    1.3046   -1.2705 H       1  UNL1        0.0621
     51 H          -2.0166    0.8243   -2.2654 H       1  UNL1        0.0636
     52 H           2.9996    1.9596   -2.4617 H       1  UNL1        0.0639
@<TRIPOS>BOND
     1     1     2    1
     2     2     3   ar
     3     3     4   ar
     4     4     5   ar
     5     5     6    1
     6     6     7    1
     7     6     8    1
     8     5     9   ar
     9     9    10    1
    10    10    11   am
    11    11    12    2
    12    11    13   am
    13    13    14    1
    14    14    15   ar
    15    15    16   ar
    16    16    17   ar
    17    17    18    1
    18    18    19    1
    19    18    20    1
    20    18    21    1
    21    17    22   ar
    22    22    23   ar
    23     9    24   ar
    24    24     2   ar
    25    23    14   ar
    26     1    25    1
    27     1    26    1
    28     1    27    1
    29     3    28    1
    30     4    29    1
    31     6    30    1
    32     7    31    1
    33     7    32    1
    34     7    33    1
    35     8    34    1
    36     8    35    1
    37     8    36    1
    38    10    37    1
    39    13    38    1
    40    15    39    1
    41    16    40    1
    42    19    41    1
    43    19    42    1
    44    19    43    1
    45    20    44    1
    46    20    45    1
    47    20    46    1
    48    21    47    1
    49    21    48    1
    50    21    49    1
    51    22    50    1
    52    23    51    1
    53    24    52    1
@<TRIPOS>MOLECULE
50542857
 47 49 0 0 0
SMALL
GASTEIGER

@<TRIPOS>ATOM
      1 C           5.8008   -0.6424    1.5469 C.3     1  UNL1        0.0788
      2 O           4.7535   -0.1045    0.7812 O.3     1  UNL1       -0.4951
      3 C           3.6106   -0.8557    0.5605 C.ar    1  UNL1        0.1204
      4 C           3.5078   -2.1232    1.0918 C.ar    1  UNL1       -0.0199
      5 C           2.3668   -2.8451    0.8585 C.ar    1  UNL1       -0.0580
      6 C           1.3271   -2.3374    0.1107 C.ar    1  UNL1       -0.0568
      7 C           1.4122   -1.0805   -0.4242 C.ar    1  UNL1       -0.0266
      8 C           0.3177   -0.4934   -1.2269 C.3     1  UNL1        0.0412
      9 N          -0.6209    0.2863   -0.4465 N.am    1  UNL1       -0.2772
     10 C          -1.7788   -0.3230    0.0754 C.2     1  UNL1        0.2544
     11 O          -2.5844    0.3640    0.7484 O.2     1  UNL1       -0.2694
     12 C          -2.1225   -1.7283   -0.1120 C.ar    1  UNL1        0.0741
     13 C          -2.2934   -2.7103    0.8037 C.ar    1  UNL1       -0.0425
     14 C          -2.6153   -3.9457    0.3830 C.ar    1  UNL1       -0.0540
     15 C          -2.7584   -4.1705   -0.9386 C.ar    1  UNL1       -0.0236
     16 S          -2.4213   -2.5493   -1.6409 S.2     1  UNL1       -0.0921
     17 C          -0.3562    1.6955   -0.1965 C.3     1  UNL1        0.1278
     18 C          -0.2416    2.0330    1.2325 C.2     1  UNL1        0.2356
     19 N          -0.5684    1.1373    2.2742 N.am    1  UNL1       -0.3275
     20 O           0.1661    3.1692    1.5846 O.2     1  UNL1       -0.2736
     21 C          -1.3747    2.5526   -0.8345 C.ar    1  UNL1       -0.0182
     22 C          -2.0541    3.4795   -0.0890 C.ar    1  UNL1       -0.0563
     23 C          -3.0064    4.3026   -0.6773 C.ar    1  UNL1       -0.0614
     24 C          -3.2961    4.2142   -2.0165 C.ar    1  UNL1       -0.0617
     25 C          -2.6010    3.2745   -2.7472 C.ar    1  UNL1       -0.0614
     26 C          -1.6610    2.4563   -2.1872 C.ar    1  UNL1       -0.0563
     27 C           2.5508   -0.3445   -0.1987 C.ar    1  UNL1       -0.0153
     28 H           6.1023   -1.6559    1.1960 H       1  UNL1        0.0660
     29 H           5.5094   -0.7062    2.6248 H       1  UNL1        0.0660
     30 H           6.7324   -0.0161    1.4401 H       1  UNL1        0.0660
     31 H           4.3343   -2.5419    1.6934 H       1  UNL1        0.0654
     32 H           2.2892   -3.8505    1.2818 H       1  UNL1        0.0619
     33 H           0.4607   -2.9823   -0.0272 H       1  UNL1        0.0621
     34 H           0.7326    0.1113   -2.0791 H       1  UNL1        0.0514
     35 H          -0.1781   -1.3609   -1.7434 H       1  UNL1        0.0514
     36 H          -2.1620   -2.4667    1.8870 H       1  UNL1        0.0630
     37 H          -2.7732   -4.8134    1.0893 H       1  UNL1        0.0623
     38 H          -3.0041   -5.0422   -1.5095 H       1  UNL1        0.0693
     39 H           0.6133    1.9448   -0.7369 H       1  UNL1        0.0648
     40 H          -0.1919    0.1743    2.2414 H       1  UNL1        0.1450
     41 H          -1.1707    1.4082    3.0694 H       1  UNL1        0.1450
     42 H          -1.9226    3.6392    0.9841 H       1  UNL1        0.0621
     43 H          -3.5324    5.0265   -0.0806 H       1  UNL1        0.0618
     44 H          -4.0482    4.8612   -2.4918 H       1  UNL1        0.0618
     45 H          -2.8281    3.2010   -3.8104 H       1  UNL1        0.0618
     46 H          -1.1030    1.7083   -2.7526 H       1  UNL1        0.0621
     47 H           2.6810    0.6499   -0.5910 H       1  UNL1        0.0657
@<TRIPOS>BOND
     1     1     2    1
     2     2     3    1
     3     3     4   ar
     4     4     5   ar
     5     5     6   ar
     6     6     7   ar
     7     7     8    1
     8     8     9    1
     9     9    10   am
    10    10    11    2
    11    10    12    1
    12    12    13   ar
    13    13    14   ar
    14    14    15   ar
    15    15    16   ar
    16     9    17    1
    17    17    18    1
    18    18    19   am
    19    18    20    2
    20    17    21    1
    21    21    22   ar
    22    22    23   ar
    23    23    24   ar
    24    24    25   ar
    25    25    26   ar
    26     7    27   ar
    27    27     3   ar
    28    16    12   ar
    29    26    21   ar
    30     1    28    1
    31     1    29    1
    32     1    30    1
    33     4    31    1
    34     5    32    1
    35     6    33    1
    36     8    34    1
    37     8    35    1
    38    13    36    1
    39    14    37    1
    40    15    38    1
    41    17    39    1
    42    19    40    1
    43    19    41    1
    44    22    42    1
    45    23    43    1
    46    24    44    1
    47    25    45    1
    48    26    46    1
    49    27    47    1
@<TRIPOS>MOLECULE
51027999
 44 45 0 0 0
SMALL
GASTEIGER

@<TRIPOS>ATOM
      1 C           7.2637   -0.6801    0.3341 C.3     1  UNL1        0.0788
      2 O           6.3302   -1.5522    0.9408 O.3     1  UNL1       -0.4951
      3 C           5.0006   -1.1637    1.1350 C.ar    1  UNL1        0.1202
      4 C           4.5238    0.0738    0.7535 C.ar    1  UNL1       -0.0182
      5 C           3.2088    0.4433    0.9515 C.ar    1  UNL1       -0.0370
      6 C           2.3106   -0.4191    1.5448 C.ar    1  UNL1        0.0350
      7 N           0.9487   -0.0497    1.7554 N.am    1  UNL1       -0.2692
      8 C          -0.0729   -0.2814    0.8158 C.2     1  UNL1        0.3081
      9 O           0.2607   -0.8521   -0.2715 O.2     1  UNL1       -0.2522
     10 N          -1.4091    0.1073    1.0790 N.am    1  UNL1       -0.2689
     11 C          -2.3864   -0.1562    0.0901 C.ar    1  UNL1        0.0384
     12 C          -3.0886   -1.3500    0.0864 C.ar    1  UNL1       -0.0372
     13 C          -4.0396   -1.5992   -0.8811 C.ar    1  UNL1       -0.0487
     14 C          -4.7933   -2.8929   -0.8763 C.3     1  UNL1       -0.0397
     15 C          -4.2686   -0.6274   -1.8402 C.ar    1  UNL1       -0.0585
     16 C          -3.5816    0.5742   -1.8603 C.ar    1  UNL1       -0.0563
     17 C          -2.6280    0.7990   -0.8726 C.ar    1  UNL1       -0.0235
     18 C          -1.8630    2.0523   -0.8355 C.3     1  UNL1       -0.0198
     19 C          -2.6397    3.0536    0.0291 C.3     1  UNL1       -0.0586
     20 C          -1.5701    2.6318   -2.1782 C.3     1  UNL1       -0.0586
     21 C           2.7826   -1.6573    1.9278 C.ar    1  UNL1       -0.0370
     22 C           4.0975   -2.0216    1.7276 C.ar    1  UNL1       -0.0182
     23 H           6.7773   -0.3125   -0.6129 H       1  UNL1        0.0660
     24 H           8.2059   -1.1902    0.1490 H       1  UNL1        0.0660
     25 H           7.4075    0.2121    0.9762 H       1  UNL1        0.0660
     26 H           5.2432    0.7501    0.2843 H       1  UNL1        0.0655
     27 H           2.8687    1.4274    0.6379 H       1  UNL1        0.0637
     28 H           0.6801    0.4228    2.6588 H       1  UNL1        0.1564
     29 H          -1.6195    0.5686    1.9833 H       1  UNL1        0.1564
     30 H          -2.8757   -2.0882    0.8617 H       1  UNL1        0.0639
     31 H          -5.2145   -3.0875    0.1304 H       1  UNL1        0.0278
     32 H          -5.6265   -2.8377   -1.5873 H       1  UNL1        0.0278
     33 H          -4.0696   -3.7183   -1.1169 H       1  UNL1        0.0278
     34 H          -5.0199   -0.8349   -2.5970 H       1  UNL1        0.0620
     35 H          -3.7800    1.3217   -2.6249 H       1  UNL1        0.0621
     36 H          -0.8896    1.9016   -0.2834 H       1  UNL1        0.0344
     37 H          -3.0024    2.5278    0.9197 H       1  UNL1        0.0235
     38 H          -3.4823    3.4935   -0.5499 H       1  UNL1        0.0235
     39 H          -1.9052    3.8254    0.3493 H       1  UNL1        0.0235
     40 H          -2.1612    3.5876   -2.2840 H       1  UNL1        0.0235
     41 H          -1.8981    1.9994   -3.0250 H       1  UNL1        0.0235
     42 H          -0.5099    2.9231   -2.2597 H       1  UNL1        0.0235
     43 H           2.0567   -2.3275    2.3963 H       1  UNL1        0.0637
     44 H           4.4285   -2.9968    2.0402 H       1  UNL1        0.0655
@<TRIPOS>BOND
     1     1     2    1
     2     2     3    1
     3     3     4   ar
     4     4     5   ar
     5     5     6   ar
     6     6     7    1
     7     7     8   am
     8     8     9    2
     9     8    10   am
    10    10    11    1
    11    11    12   ar
    12    12    13   ar
    13    13    14    1
    14    13    15   ar
    15    15    16   ar
    16    16    17   ar
    17    17    18    1
    18    18    19    1
    19    18    20    1
    20     6    21   ar
    21    21    22   ar
    22    22     3   ar
    23    17    11   ar
    24     1    23    1
    25     1    24    1
    26     1    25    1
    27     4    26    1
    28     5    27    1
    29     7    28    1
    30    10    29    1
    31    12    30    1
    32    14    31    1
    33    14    32    1
    34    14    33    1
    35    15    34    1
    36    16    35    1
    37    18    36    1
    38    19    37    1
    39    19    38    1
    40    19    39    1
    41    20    40    1
    42    20    41    1
    43    20    42    1
    44    21    43    1
    45    22    44    1
@<TRIPOS>MOLECULE
134132806
 49 51 0 0 0
SMALL
GASTEIGER

@<TRIPOS>ATOM
      1 C           5.0043    1.0407   -2.0647 C.3     1  UNL1        0.0788
      2 O           3.8589    1.3658   -1.2966 O.3     1  UNL1       -0.4951
      3 C           3.2483    0.3516   -0.5683 C.ar    1  UNL1        0.1204
      4 C           3.7032   -0.9479   -0.5601 C.ar    1  UNL1       -0.0199
      5 C           3.0780   -1.9296    0.1699 C.ar    1  UNL1       -0.0580
      6 C           1.9692   -1.6578    0.9255 C.ar    1  UNL1       -0.0568
      7 C           1.4717   -0.3600    0.9488 C.ar    1  UNL1       -0.0266
      8 C           0.2864   -0.0723    1.7752 C.3     1  UNL1        0.0413
      9 N          -0.9897   -0.2449    1.1397 N.am    1  UNL1       -0.2759
     10 C          -1.6272    0.8273    0.5034 C.2     1  UNL1        0.2478
     11 O          -2.7599    0.5917   -0.0540 O.2     1  UNL1       -0.2699
     12 C          -1.0703    2.1583    0.4551 C.ar    1  UNL1        0.0369
     13 C          -0.9139    2.9644    1.5592 C.ar    1  UNL1       -0.0496
     14 C          -0.3922    4.2351    1.5234 C.ar    1  UNL1       -0.0610
     15 C           0.0087    4.7664    0.3277 C.ar    1  UNL1       -0.0617
     16 C          -0.1282    4.0000   -0.8017 C.ar    1  UNL1       -0.0610
     17 C          -0.6514    2.7297   -0.7568 C.ar    1  UNL1       -0.0496
     18 C          -1.6034   -1.5663    1.2285 C.3     1  UNL1        0.1488
     19 C          -2.8295   -1.4445    2.1007 C.2     1  UNL1        0.3301
     20 O          -3.3676   -2.4762    2.5271 O.2     1  UNL1       -0.2485
     21 O          -3.3186   -0.1879    2.4000 O.3     1  UNL1       -0.4791
     22 C          -2.0104   -2.1157   -0.0569 C.ar    1  UNL1       -0.0163
     23 C          -3.2501   -2.6592   -0.3387 C.ar    1  UNL1       -0.0563
     24 C          -3.5808   -3.1783   -1.5904 C.ar    1  UNL1       -0.0614
     25 C          -2.6708   -3.1696   -2.6109 C.ar    1  UNL1       -0.0617
     26 C          -1.4188   -2.6346   -2.3743 C.ar    1  UNL1       -0.0614
     27 C          -1.1216   -2.1300   -1.1291 C.ar    1  UNL1       -0.0563
     28 C           2.1266    0.5952    0.2043 C.ar    1  UNL1       -0.0153
     29 H           5.3556    1.8909   -2.6647 H       1  UNL1        0.0660
     30 H           5.8089    0.6893   -1.3535 H       1  UNL1        0.0660
     31 H           4.7434    0.1582   -2.6794 H       1  UNL1        0.0660
     32 H           4.5858   -1.1855   -1.1545 H       1  UNL1        0.0654
     33 H           3.4653   -2.9642    0.1586 H       1  UNL1        0.0619
     34 H           1.4636   -2.4355    1.5150 H       1  UNL1        0.0621
     35 H           0.2894   -0.7281    2.6775 H       1  UNL1        0.0514
     36 H           0.4367    0.9564    2.1770 H       1  UNL1        0.0514
     37 H          -1.2254    2.5839    2.5198 H       1  UNL1        0.0625
     38 H          -0.2824    4.8423    2.4138 H       1  UNL1        0.0618
     39 H           0.4183    5.7700    0.3141 H       1  UNL1        0.0618
     40 H           0.1964    4.4400   -1.7454 H       1  UNL1        0.0618
     41 H          -0.7557    2.1369   -1.6462 H       1  UNL1        0.0625
     42 H          -0.8953   -2.2371    1.7316 H       1  UNL1        0.0668
     43 H          -4.0409   -0.1185    3.1107 H       1  UNL1        0.2951
     44 H          -4.0185   -2.6997    0.3972 H       1  UNL1        0.0621
     45 H          -4.5808   -3.5975   -1.7602 H       1  UNL1        0.0618
     46 H          -2.9103   -3.5740   -3.6075 H       1  UNL1        0.0618
     47 H          -0.7308   -2.6510   -3.2078 H       1  UNL1        0.0618
     48 H          -0.1343   -1.7255   -1.0058 H       1  UNL1        0.0621
     49 H           1.7600    1.5974    0.2235 H       1  UNL1        0.0657
@<TRIPOS>BOND
     1     1     2    1
     2     2     3    1
     3     3     4   ar
     4     4     5   ar
     5     5     6   ar
     6     6     7   ar
     7     7     8    1
     8     8     9    1
     9     9    10   am
    10    10    11    2
    11    10    12    1
    12    12    13   ar
    13    13    14   ar
    14    14    15   ar
    15    15    16   ar
    16    16    17   ar
    17     9    18    1
    18    18    19    1
    19    19    20    2
    20    19    21    1
    21    18    22    1
    22    22    23   ar
    23    23    24   ar
    24    24    25   ar
    25    25    26   ar
    26    26    27   ar
    27     7    28   ar
    28    28     3   ar
    29    17    12   ar
    30    27    22   ar
    31     1    29    1
    32     1    30    1
    33     1    31    1
    34     4    32    1
    35     5    33    1
    36     6    34    1
    37     8    35    1
    38     8    36    1
    39    13    37    1
    40    14    38    1
    41    15    39    1
    42    16    40    1
    43    17    41    1
    44    18    42    1
    45    21    43    1
    46    23    44    1
    47    24    45    1
    48    25    46    1
    49    26    47    1
    50    27    48    1
    51    28    49    1
@<TRIPOS>MOLECULE
CHEMBL4454519
 33 34 0 0 0
SMALL
GASTEIGER

@<TRIPOS>ATOM
      1 O           0.9358    1.8345    1.1927 O.2     1  UNL1       -0.2705
      2 C           0.3798    0.7977    0.7160 C.2     1  UNL1        0.2411
      3 C          -1.0451    0.8596    0.4375 C.2     1  UNL1        0.0010
      4 C          -1.7341   -0.1467   -0.0565 C.2     1  UNL1       -0.0497
      5 C          -3.1559   -0.1122   -0.3438 C.ar    1  UNL1       -0.0248
      6 C          -3.8074   -1.2188   -0.8648 C.ar    1  UNL1       -0.0535
      7 C          -5.1484   -1.2520   -1.1586 C.ar    1  UNL1       -0.0472
      8 C          -5.9106   -0.1180   -0.9256 C.ar    1  UNL1        0.0179
      9 BR         -7.7822   -0.1420   -1.3278 Br      1  UNL1       -0.0503
     10 C          -5.2898    0.9872   -0.4116 C.ar    1  UNL1       -0.0472
     11 C          -3.9288    0.9922   -0.1234 C.ar    1  UNL1       -0.0535
     12 N           1.2204   -0.3029    0.5113 N.am    1  UNL1       -0.2812
     13 C           2.6125   -0.3137    0.8006 C.ar    1  UNL1        0.0477
     14 C           3.0896   -0.6967    2.0357 C.ar    1  UNL1       -0.0397
     15 C           4.4451   -0.7107    2.3278 C.ar    1  UNL1       -0.0600
     16 C           5.3582   -0.3259    1.3436 C.ar    1  UNL1       -0.0609
     17 C           4.8893    0.0632    0.0914 C.ar    1  UNL1       -0.0460
     18 C           3.5286    0.0660   -0.1679 C.ar    1  UNL1        0.0800
     19 C           2.9948    0.4659   -1.4645 C.2     1  UNL1        0.3386
     20 O           1.7624    0.4717   -1.7089 O.2     1  UNL1       -0.2451
     21 O           3.9031    0.8485   -2.4430 O.3     1  UNL1       -0.4771
     22 H          -1.5674    1.7794    0.6466 H       1  UNL1        0.0670
     23 H          -1.1480   -1.0484   -0.2459 H       1  UNL1        0.0625
     24 H          -3.1905   -2.1010   -1.0410 H       1  UNL1        0.0624
     25 H          -5.6569   -2.1053   -1.5616 H       1  UNL1        0.0629
     26 H          -5.8444    1.8788   -0.2190 H       1  UNL1        0.0629
     27 H          -3.4909    1.8925    0.2811 H       1  UNL1        0.0624
     28 H           0.8212   -1.1815    0.1225 H       1  UNL1        0.1551
     29 H           2.3510   -0.9896    2.7770 H       1  UNL1        0.0636
     30 H           4.7445   -1.0198    3.3091 H       1  UNL1        0.0618
     31 H           6.4096   -0.3383    1.5747 H       1  UNL1        0.0618
     32 H           5.5890    0.3642   -0.6810 H       1  UNL1        0.0626
     33 H           3.6655    0.8223   -3.4224 H       1  UNL1        0.2954
@<TRIPOS>BOND
     1     1     2    2
     2     2     3    1
     3     3     4    2
     4     4     5    1
     5     5     6   ar
     6     6     7   ar
     7     7     8   ar
     8     8     9    1
     9     8    10   ar
    10    10    11   ar
    11     2    12   am
    12    12    13    1
    13    13    14   ar
    14    14    15   ar
    15    15    16   ar
    16    16    17   ar
    17    17    18   ar
    18    18    19    1
    19    19    20    2
    20    19    21    1
    21    11     5   ar
    22    18    13   ar
    23     3    22    1
    24     4    23    1
    25     6    24    1
    26     7    25    1
    27    10    26    1
    28    11    27    1
    29    12    28    1
    30    14    29    1
    31    15    30    1
    32    16    31    1
    33    17    32    1
    34    21    33    1
@<TRIPOS>MOLECULE
CHEMBL4533807
 60 62 0 0 0
SMALL
GASTEIGER

@<TRIPOS>ATOM
      1 C          -3.0054   -4.0575    1.5177 C.3     1  UNL1       -0.0466
      2 C          -2.8705   -2.6097    1.1884 C.2     1  UNL1       -0.0875
      3 C          -2.3387   -2.1898    0.0470 C.2     1  UNL1       -0.0688
      4 C          -1.8701   -3.2569   -0.9067 C.3     1  UNL1       -0.0432
      5 C          -2.2309   -0.7815   -0.3871 C.3     1  UNL1        0.0133
      6 C          -3.1849    0.1623    0.1922 C.2     1  UNL1       -0.0683
      7 C          -4.5111   -0.2513    0.6955 C.3     1  UNL1       -0.0432
      8 C          -2.9094    1.4550    0.2435 C.2     1  UNL1       -0.0810
      9 C          -1.6368    2.0057   -0.2802 C.3     1  UNL1       -0.0180
     10 C          -1.3531    3.3786    0.3243 C.3     1  UNL1       -0.0438
     11 C          -0.0414    3.8367   -0.2775 C.3     1  UNL1       -0.0427
     12 C           0.2254    5.2868   -0.0464 C.3     1  UNL1       -0.0624
     13 C           1.0268    2.9420    0.3299 C.3     1  UNL1       -0.0403
     14 C           0.8188    1.5694   -0.2920 C.3     1  UNL1        0.0268
     15 C           1.8456    0.6629    0.2593 C.2     1  UNL1        0.1711
     16 O           2.9941    1.0642    0.6210 O.2     1  UNL1       -0.2916
     17 C           1.5181   -0.7478    0.3893 C.2     1  UNL1        0.0740
     18 C           2.4640   -1.6689    0.5668 C.2     1  UNL1        0.0035
     19 N           3.8356   -1.2855    0.6340 N.pl3   1  UNL1       -0.3468
     20 C           4.7724   -1.5283   -0.4286 C.3     1  UNL1        0.0318
     21 C           6.1248   -1.0121   -0.0586 C.3     1  UNL1        0.0596
     22 O           7.0512   -1.2332   -1.0678 O.3     1  UNL1       -0.3935
     23 C           0.1107   -1.1973    0.3298 C.2     1  UNL1        0.1747
     24 O          -0.1888   -2.2159    0.9376 O.2     1  UNL1       -0.2913
     25 C          -0.8038   -0.3237   -0.4904 C.3     1  UNL1        0.0450
     26 C          -0.3625   -0.4783   -1.9303 C.3     1  UNL1       -0.0513
     27 C          -0.5450    1.0567    0.0525 C.3     1  UNL1       -0.0116
     28 H          -3.8389   -4.1588    2.2409 H       1  UNL1        0.0272
     29 H          -2.0845   -4.3875    1.9997 H       1  UNL1        0.0272
     30 H          -3.3006   -4.6575    0.6324 H       1  UNL1        0.0272
     31 H          -3.1910   -1.8807    1.9077 H       1  UNL1        0.0569
     32 H          -1.5966   -4.1780   -0.3766 H       1  UNL1        0.0275
     33 H          -2.7287   -3.4452   -1.6008 H       1  UNL1        0.0275
     34 H          -1.0229   -2.9629   -1.5268 H       1  UNL1        0.0275
     35 H          -2.6176   -0.8436   -1.4952 H       1  UNL1        0.0400
     36 H          -4.6569   -0.0651    1.7823 H       1  UNL1        0.0275
     37 H          -5.3306    0.4065    0.2374 H       1  UNL1        0.0275
     38 H          -4.8331   -1.2649    0.3639 H       1  UNL1        0.0275
     39 H          -3.6360    2.1594    0.6857 H       1  UNL1        0.0575
     40 H          -1.7799    2.1569   -1.3703 H       1  UNL1        0.0346
     41 H          -1.2218    3.2055    1.4182 H       1  UNL1        0.0274
     42 H          -2.1785    4.0779    0.1073 H       1  UNL1        0.0274
     43 H          -0.0901    3.5701   -1.3620 H       1  UNL1        0.0298
     44 H          -0.4719    5.7244    0.6836 H       1  UNL1        0.0232
     45 H           0.0540    5.8244   -1.0160 H       1  UNL1        0.0232
     46 H           1.2858    5.5041    0.2283 H       1  UNL1        0.0232
     47 H           0.9900    2.9237    1.4253 H       1  UNL1        0.0275
     48 H           2.0025    3.3131   -0.0231 H       1  UNL1        0.0275
     49 H           1.0344    1.6866   -1.3548 H       1  UNL1        0.0384
     50 H           2.2195   -2.7027    0.6617 H       1  UNL1        0.0786
     51 H           4.1657   -0.8080    1.4962 H       1  UNL1        0.1456
     52 H           4.8318   -2.6208   -0.6394 H       1  UNL1        0.0483
     53 H           4.4552   -0.9729   -1.3524 H       1  UNL1        0.0483
     54 H           6.5082   -1.5297    0.8619 H       1  UNL1        0.0573
     55 H           6.1296    0.0675    0.1855 H       1  UNL1        0.0573
     56 H           7.4192   -2.1501   -1.0724 H       1  UNL1        0.2095
     57 H           0.4684   -1.1701   -2.0751 H       1  UNL1        0.0240
     58 H          -1.2126   -0.8672   -2.5747 H       1  UNL1        0.0240
     59 H          -0.1511    0.5177   -2.4230 H       1  UNL1        0.0240
     60 H          -0.5558    0.9456    1.1798 H       1  UNL1        0.0323
@<TRIPOS>BOND
     1     1     2    1
     2     2     3    2
     3     3     4    1
     4     3     5    1
     5     5     6    1
     6     6     7    1
     7     6     8    2
     8     8     9    1
     9     9    10    1
    10    10    11    1
    11    11    12    1
    12    11    13    1
    13    13    14    1
    14    14    15    1
    15    15    16    2
    16    15    17    1
    17    17    18    2
    18    18    19    1
    19    19    20    1
    20    20    21    1
    21    21    22    1
    22    17    23    1
    23    23    24    2
    24    23    25    1
    25    25    26    1
    26    25    27    1
    27    25     5    1
    28    27     9    1
    29    27    14    1
    30     1    28    1
    31     1    29    1
    32     1    30    1
    33     2    31    1
    34     4    32    1
    35     4    33    1
    36     4    34    1
    37     5    35    1
    38     7    36    1
    39     7    37    1
    40     7    38    1
    41     8    39    1
    42     9    40    1
    43    10    41    1
    44    10    42    1
    45    11    43    1
    46    12    44    1
    47    12    45    1
    48    12    46    1
    49    13    47    1
    50    13    48    1
    51    14    49    1
    52    18    50    1
    53    19    51    1
    54    20    52    1
    55    20    53    1
    56    21    54    1
    57    21    55    1
    58    22    56    1
    59    26    57    1
    60    26    58    1
    61    26    59    1
    62    27    60    1
@<TRIPOS>MOLECULE
51027982
 62 65 0 0 0
SMALL
GASTEIGER

@<TRIPOS>ATOM
      1 C          -5.2627    1.7924   -4.1234 C.3     1  UNL1       -0.0397
      2 C          -5.1980    1.3433   -2.6954 C.ar    1  UNL1       -0.0497
      3 C          -6.3293    1.3944   -1.9159 C.ar    1  UNL1       -0.0585
      4 C          -6.2964    0.9933   -0.6034 C.ar    1  UNL1       -0.0574
      5 C          -5.0896    0.5180   -0.0284 C.ar    1  UNL1       -0.0327
      6 C          -5.1715    0.1356    1.4019 C.3     1  UNL1       -0.0208
      7 C          -5.2289    1.3459    2.3192 C.3     1  UNL1       -0.0586
      8 C          -6.4732   -0.6346    1.6012 C.3     1  UNL1       -0.0586
      9 C          -3.9782    0.4761   -0.8238 C.ar    1  UNL1        0.0404
     10 C          -2.7206   -0.0209   -0.2824 C.2     1  UNL1        0.2444
     11 O          -1.6854    0.7286   -0.3867 O.2     1  UNL1       -0.2702
     12 N          -2.5198   -1.2554    0.3537 N.am    1  UNL1       -0.3110
     13 C          -1.2616   -1.7128    0.8677 C.3     1  UNL1        0.0159
     14 C          -0.2665   -1.9514   -0.2741 C.3     1  UNL1       -0.0101
     15 C           0.9808   -2.3734    0.3922 C.ar    1  UNL1       -0.0208
     16 C           1.1712   -3.6308    0.9119 C.ar    1  UNL1        0.0060
     17 N           2.3490   -3.6322    1.5444 N.ar    1  UNL1       -0.3604
     18 C           2.9171   -2.3904    1.4343 C.ar    1  UNL1        0.0470
     19 C           4.1133   -1.8702    1.8439 C.ar    1  UNL1       -0.0343
     20 C           4.4716   -0.5499    1.5246 C.ar    1  UNL1       -0.0179
     21 C           3.6574    0.2760    0.7961 C.ar    1  UNL1        0.1217
     22 O           3.9769    1.5278    0.4523 O.3     1  UNL1       -0.4874
     23 C           5.0693    2.3122    0.6123 C.3     1  UNL1        0.1146
     24 C           6.2525    1.7164   -0.1075 C.ar    1  UNL1       -0.0104
     25 C           6.2993    1.7729   -1.5137 C.ar    1  UNL1       -0.0554
     26 C           7.3612    1.2243   -2.1955 C.ar    1  UNL1       -0.0614
     27 C           8.3875    0.6153   -1.4944 C.ar    1  UNL1       -0.0617
     28 C           8.3712    0.5466   -0.1212 C.ar    1  UNL1       -0.0614
     29 C           7.2955    1.1055    0.5207 C.ar    1  UNL1       -0.0554
     30 C           2.4290   -0.2922    0.3991 C.ar    1  UNL1       -0.0105
     31 C           2.0588   -1.5833    0.7028 C.ar    1  UNL1        0.0063
     32 C          -4.0086    0.8887   -2.1723 C.ar    1  UNL1       -0.0464
     33 H          -4.2026    1.9395   -4.4522 H       1  UNL1        0.0278
     34 H          -5.6931    0.9383   -4.6789 H       1  UNL1        0.0278
     35 H          -5.8703    2.7045   -4.2152 H       1  UNL1        0.0278
     36 H          -7.2701    1.7518   -2.3563 H       1  UNL1        0.0620
     37 H          -7.1693    1.0142    0.0389 H       1  UNL1        0.0621
     38 H          -4.3138   -0.4292    1.7023 H       1  UNL1        0.0344
     39 H          -4.9873    0.9489    3.3372 H       1  UNL1        0.0235
     40 H          -4.4461    2.0453    2.0077 H       1  UNL1        0.0235
     41 H          -6.2594    1.7793    2.3287 H       1  UNL1        0.0235
     42 H          -6.7954   -1.0348    0.6203 H       1  UNL1        0.0235
     43 H          -6.3125   -1.4190    2.3265 H       1  UNL1        0.0235
     44 H          -7.2214    0.0862    1.9087 H       1  UNL1        0.0235
     45 H          -3.3643   -1.9083    0.4104 H       1  UNL1        0.1490
     46 H          -1.4238   -2.6949    1.3858 H       1  UNL1        0.0465
     47 H          -0.7678   -1.0548    1.5908 H       1  UNL1        0.0465
     48 H          -0.0960   -0.9797   -0.8135 H       1  UNL1        0.0329
     49 H          -0.6568   -2.6609   -1.0209 H       1  UNL1        0.0329
     50 H           0.4708   -4.4831    0.8205 H       1  UNL1        0.0810
     51 H           2.8184   -4.3940    2.0540 H       1  UNL1        0.1653
     52 H           4.7964   -2.4789    2.4217 H       1  UNL1        0.0639
     53 H           5.4188   -0.2058    1.9129 H       1  UNL1        0.0655
     54 H           5.4353    2.4023    1.6743 H       1  UNL1        0.0748
     55 H           4.9278    3.3609    0.2604 H       1  UNL1        0.0748
     56 H           5.4972    2.2403   -2.0323 H       1  UNL1        0.0621
     57 H           7.4036    1.2547   -3.2847 H       1  UNL1        0.0618
     58 H           9.2321    0.1811   -2.0313 H       1  UNL1        0.0618
     59 H           9.1839    0.0539    0.4304 H       1  UNL1        0.0618
     60 H           7.3094    1.0614    1.6281 H       1  UNL1        0.0621
     61 H           1.7760    0.3277   -0.1635 H       1  UNL1        0.0661
     62 H          -3.0910    0.8372   -2.7522 H       1  UNL1        0.0628
@<TRIPOS>BOND
     1     1     2    1
     2     2     3   ar
     3     3     4   ar
     4     4     5   ar
     5     5     6    1
     6     6     7    1
     7     6     8    1
     8     5     9   ar
     9     9    10    1
    10    10    11    2
    11    10    12   am
    12    12    13    1
    13    13    14    1
    14    14    15    1
    15    15    16   ar
    16    16    17   ar
    17    17    18   ar
    18    18    19   ar
    19    19    20   ar
    20    20    21   ar
    21    21    22    1
    22    22    23    1
    23    23    24    1
    24    24    25   ar
    25    25    26   ar
    26    26    27   ar
    27    27    28   ar
    28    28    29   ar
    29    21    30   ar
    30    30    31   ar
    31     9    32   ar
    32    32     2   ar
    33    31    15   ar
    34    31    18   ar
    35    29    24   ar
    36     1    33    1
    37     1    34    1
    38     1    35    1
    39     3    36    1
    40     4    37    1
    41     6    38    1
    42     7    39    1
    43     7    40    1
    44     7    41    1
    45     8    42    1
    46     8    43    1
    47     8    44    1
    48    12    45    1
    49    13    46    1
    50    13    47    1
    51    14    48    1
    52    14    49    1
    53    16    50    1
    54    17    51    1
    55    19    52    1
    56    20    53    1
    57    23    54    1
    58    23    55    1
    59    25    56    1
    60    26    57    1
    61    27    58    1
    62    28    59    1
    63    29    60    1
    64    30    61    1
    65    32    62    1
@<TRIPOS>MOLECULE
50333153
 42 44 0 0 0
SMALL
GASTEIGER

@<TRIPOS>ATOM
      1 C          -5.4772   -1.3581    2.0363 C.3     1  UNL1        0.0788
      2 O          -5.8669   -0.5780    0.9434 O.3     1  UNL1       -0.4951
      3 C          -4.9729    0.0389    0.1063 C.ar    1  UNL1        0.1219
      4 C          -5.4810    0.7869   -0.9448 C.ar    1  UNL1       -0.0198
      5 C          -4.6073    1.4155   -1.7985 C.ar    1  UNL1       -0.0565
      6 C          -3.2476    1.2955   -1.6008 C.ar    1  UNL1       -0.0400
      7 C          -2.6974    0.5595   -0.5656 C.ar    1  UNL1        0.0415
      8 N          -1.2959    0.4440   -0.3733 N.am    1  UNL1       -0.2512
      9 C          -0.6336    1.3942    0.4438 C.3     1  UNL1        0.0414
     10 C           0.8086    1.2703    0.5432 C.2     1  UNL1       -0.0443
     11 C           1.5906    0.3180    0.0171 C.2     1  UNL1        0.0424
     12 C           3.0169    0.3308    0.2025 C.ar    1  UNL1        0.0026
     13 C           3.6324    1.5293    0.5771 C.ar    1  UNL1       -0.0524
     14 C           4.9724    1.6303    0.8564 C.ar    1  UNL1       -0.0547
     15 C           5.7458    0.4951    0.7617 C.ar    1  UNL1        0.0156
     16 C           5.2002   -0.7079    0.3999 C.ar    1  UNL1        0.2738
     17 N           6.0336   -1.8530    0.3142 N.pl3   1  UNL1        0.0796
     18 O           7.2456   -1.8377    0.5498 O.2     1  UNL1        0.0414
     19 O           5.4613   -3.0447   -0.0507 O.co2   1  UNL1       -0.5760
     20 C           3.8290   -0.7632    0.1257 C.ar    1  UNL1        0.0245
     21 N           0.9115   -0.6431   -0.7679 N.am    1  UNL1       -0.2579
     22 C           1.5524   -1.7215   -1.5050 C.3     1  UNL1        0.0098
     23 C          -0.5252   -0.5798   -0.9617 C.2     1  UNL1        0.3134
     24 O          -1.1224   -1.4539   -1.6718 O.2     1  UNL1       -0.2517
     25 C          -3.6012   -0.0662    0.2835 C.ar    1  UNL1        0.0015
     26 H          -6.3094   -2.0657    2.3018 H       1  UNL1        0.0660
     27 H          -5.3512   -0.6622    2.9119 H       1  UNL1        0.0660
     28 H          -4.5854   -1.9506    1.8240 H       1  UNL1        0.0660
     29 H          -6.5514    0.8935   -1.1173 H       1  UNL1        0.0654
     30 H          -4.9947    2.0107   -2.6345 H       1  UNL1        0.0619
     31 H          -2.5667    1.7984   -2.2843 H       1  UNL1        0.0636
     32 H          -0.8563    2.4104    0.0002 H       1  UNL1        0.0513
     33 H          -1.0685    1.4194    1.4804 H       1  UNL1        0.0513
     34 H           1.2854    2.0557    1.1347 H       1  UNL1        0.0606
     35 H           3.0761    2.4675    0.6563 H       1  UNL1        0.0624
     36 H           5.4186    2.5900    1.1478 H       1  UNL1        0.0620
     37 H           6.8157    0.6139    0.9921 H       1  UNL1        0.0685
     38 H           3.4903   -1.7569   -0.1054 H       1  UNL1        0.0692
     39 H           0.8676   -2.0055   -2.3859 H       1  UNL1        0.0433
     40 H           2.4683   -1.4238   -2.0304 H       1  UNL1        0.0433
     41 H           1.5759   -2.6448   -0.9177 H       1  UNL1        0.0433
     42 H          -3.1857   -0.6510    1.1057 H       1  UNL1        0.0673
@<TRIPOS>UNITY_ATOM_ATTR
17 1
charge 1
19 1
charge -1
@<TRIPOS>BOND
     1     1     2    1
     2     2     3    1
     3     3     4   ar
     4     4     5   ar
     5     5     6   ar
     6     6     7   ar
     7     7     8    1
     8     8     9    1
     9     9    10    1
    10    10    11    2
    11    11    12    1
    12    12    13   ar
    13    13    14   ar
    14    14    15   ar
    15    15    16   ar
    16    16    17    1
    17    17    18    2
    18    17    19    1
    19    16    20   ar
    20    11    21    1
    21    21    22    1
    22    21    23   am
    23    23    24    2
    24     7    25   ar
    25    25     3   ar
    26    23     8   am
    27    20    12   ar
    28     1    26    1
    29     1    27    1
    30     1    28    1
    31     4    29    1
    32     5    30    1
    33     6    31    1
    34     9    32    1
    35     9    33    1
    36    10    34    1
    37    13    35    1
    38    14    36    1
    39    15    37    1
    40    20    38    1
    41    22    39    1
    42    22    40    1
    43    22    41    1
    44    25    42    1
@<TRIPOS>MOLECULE
50575120
 56 57 0 0 0
SMALL
GASTEIGER

@<TRIPOS>ATOM
      1 C          -4.9691    0.4667    1.7577 C.3     1  UNL1       -0.0624
      2 C          -3.7663    1.1883    1.2207 C.3     1  UNL1       -0.0422
      3 C          -4.1779    2.5335    0.6988 C.3     1  UNL1       -0.0624
      4 C          -3.1339    0.4313    0.0396 C.3     1  UNL1       -0.0202
      5 C          -4.1184    0.2401   -1.0459 C.3     1  UNL1       -0.0481
      6 C          -4.6809   -1.1514   -1.2104 C.3     1  UNL1       -0.0501
      7 C          -3.5027   -2.0760   -1.3248 C.3     1  UNL1       -0.0422
      8 C          -2.5390   -1.6415   -2.3930 C.3     1  UNL1       -0.0624
      9 C          -2.7985   -2.0815    0.0050 C.3     1  UNL1       -0.0316
     10 C          -2.3785   -0.7518    0.4908 C.3     1  UNL1        0.0267
     11 N          -0.9272   -0.6598    0.2276 N.am    1  UNL1       -0.3082
     12 C          -0.0082    0.1598    0.8693 C.2     1  UNL1        0.2443
     13 O          -0.4018    0.9593    1.7737 O.2     1  UNL1       -0.2702
     14 C           1.4170    0.1823    0.5900 C.ar    1  UNL1        0.0367
     15 C           2.1226    1.3323    0.6989 C.ar    1  UNL1       -0.0494
     16 C           3.4963    1.4164    0.5130 C.ar    1  UNL1       -0.0574
     17 C           4.2004    0.2676    0.1995 C.ar    1  UNL1       -0.0419
     18 C           5.6679    0.2856    0.0013 C.3     1  UNL1       -0.0127
     19 C           6.0489    0.3329   -1.4737 C.3     1  UNL1       -0.0560
     20 C           6.3391   -0.9143    0.6512 C.3     1  UNL1       -0.0560
     21 C           6.2972    1.5254    0.6161 C.3     1  UNL1       -0.0560
     22 C           3.4829   -0.9232    0.0854 C.ar    1  UNL1       -0.0574
     23 C           2.1188   -0.9649    0.2760 C.ar    1  UNL1       -0.0494
     24 H          -5.7823    0.3838    0.9766 H       1  UNL1        0.0232
     25 H          -5.4216    1.0878    2.5518 H       1  UNL1        0.0232
     26 H          -4.7686   -0.5145    2.1906 H       1  UNL1        0.0232
     27 H          -3.0654    1.2902    2.0501 H       1  UNL1        0.0299
     28 H          -5.1948    2.8396    0.9822 H       1  UNL1        0.0232
     29 H          -4.1079    2.5780   -0.4117 H       1  UNL1        0.0232
     30 H          -3.4345    3.2943    1.0488 H       1  UNL1        0.0232
     31 H          -2.4373    1.2497   -0.3753 H       1  UNL1        0.0321
     32 H          -5.0441    0.8764   -0.8442 H       1  UNL1        0.0269
     33 H          -3.7950    0.5870   -2.0514 H       1  UNL1        0.0269
     34 H          -5.2822   -1.5050   -0.3496 H       1  UNL1        0.0268
     35 H          -5.3297   -1.1378   -2.1026 H       1  UNL1        0.0268
     36 H          -3.8568   -3.0874   -1.5661 H       1  UNL1        0.0299
     37 H          -2.0340   -0.6790   -2.0981 H       1  UNL1        0.0232
     38 H          -1.7482   -2.4062   -2.4720 H       1  UNL1        0.0232
     39 H          -3.0000   -1.5455   -3.4061 H       1  UNL1        0.0232
     40 H          -1.8743   -2.7367   -0.0750 H       1  UNL1        0.0286
     41 H          -3.4105   -2.6010    0.7611 H       1  UNL1        0.0286
     42 H          -2.4410   -0.7239    1.6216 H       1  UNL1        0.0501
     43 H          -0.5005   -1.2816   -0.5340 H       1  UNL1        0.1493
     44 H           1.6478    2.3005    0.9433 H       1  UNL1        0.0625
     45 H           3.9928    2.3717    0.6067 H       1  UNL1        0.0621
     46 H           5.6847    1.2715   -1.9416 H       1  UNL1        0.0238
     47 H           5.6398   -0.5396   -1.9959 H       1  UNL1        0.0238
     48 H           7.1424    0.2986   -1.5935 H       1  UNL1        0.0238
     49 H           5.7239   -1.2194    1.5169 H       1  UNL1        0.0238
     50 H           6.4766   -1.7274   -0.0643 H       1  UNL1        0.0238
     51 H           7.3600   -0.6161    1.0482 H       1  UNL1        0.0238
     52 H           5.7200    1.9300    1.4717 H       1  UNL1        0.0238
     53 H           7.2989    1.2501    1.0039 H       1  UNL1        0.0238
     54 H           6.4353    2.2826   -0.1864 H       1  UNL1        0.0238
     55 H           4.0628   -1.8102   -0.1492 H       1  UNL1        0.0621
     56 H           1.5549   -1.9173    0.1784 H       1  UNL1        0.0625
@<TRIPOS>BOND
     1     1     2    1
     2     2     3    1
     3     2     4    1
     4     4     5    1
     5     5     6    1
     6     6     7    1
     7     7     8    1
     8     7     9    1
     9     9    10    1
    10    10    11    1
    11    11    12   am
    12    12    13    2
    13    12    14    1
    14    14    15   ar
    15    15    16   ar
    16    16    17   ar
    17    17    18    1
    18    18    19    1
    19    18    20    1
    20    18    21    1
    21    17    22   ar
    22    22    23   ar
    23    10     4    1
    24    23    14   ar
    25     1    24    1
    26     1    25    1
    27     1    26    1
    28     2    27    1
    29     3    28    1
    30     3    29    1
    31     3    30    1
    32     4    31    1
    33     5    32    1
    34     5    33    1
    35     6    34    1
    36     6    35    1
    37     7    36    1
    38     8    37    1
    39     8    38    1
    40     8    39    1
    41     9    40    1
    42     9    41    1
    43    10    42    1
    44    11    43    1
    45    15    44    1
    46    16    45    1
    47    19    46    1
    48    19    47    1
    49    19    48    1
    50    20    49    1
    51    20    50    1
    52    20    51    1
    53    21    52    1
    54    21    53    1
    55    21    54    1
    56    22    55    1
    57    23    56    1
@<TRIPOS>MOLECULE
50162262
 86 86 0 0 0
SMALL
GASTEIGER

@<TRIPOS>ATOM
      1 C           4.5861   -0.2638    2.5905 C.3     1  UNL1       -0.0653
      2 C           4.7180    1.2178    2.4220 C.3     1  UNL1       -0.0559
      3 C           5.0143    1.5504    0.9911 C.3     1  UNL1       -0.0533
      4 C           6.3117    0.9056    0.5271 C.3     1  UNL1       -0.0531
      5 C           6.5367    1.2946   -0.9304 C.3     1  UNL1       -0.0530
      6 C           7.8176    0.6472   -1.3525 C.3     1  UNL1       -0.0528
      7 C           8.2018    0.9159   -2.7642 C.3     1  UNL1       -0.0496
      8 C           7.2253    0.4095   -3.7968 C.3     1  UNL1       -0.0348
      9 C           7.0885   -1.0494   -3.7211 C.2     1  UNL1       -0.0879
     10 C           5.9902   -1.7408   -3.5067 C.2     1  UNL1       -0.0879
     11 C           4.6831   -1.1066   -3.3042 C.3     1  UNL1       -0.0348
     12 C           4.1520   -1.5239   -1.9306 C.3     1  UNL1       -0.0496
     13 C           2.8242   -0.8994   -1.6452 C.3     1  UNL1       -0.0528
     14 C           1.7991   -1.3040   -2.6707 C.3     1  UNL1       -0.0530
     15 C           0.4556   -0.6856   -2.4098 C.3     1  UNL1       -0.0530
     16 C          -0.1316   -1.0663   -1.0651 C.3     1  UNL1       -0.0526
     17 C          -1.4557   -0.3706   -0.9617 C.3     1  UNL1       -0.0448
     18 C          -2.1880   -0.6443    0.3362 C.3     1  UNL1        0.0240
     19 C          -3.4741    0.0900    0.3306 C.2     1  UNL1        0.2132
     20 O          -3.8023    0.7943   -0.6616 O.2     1  UNL1       -0.2758
     21 N          -4.3904    0.0445    1.4170 N.am    1  UNL1       -0.3122
     22 C          -5.6591    0.7824    1.3864 C.3     1  UNL1        0.0264
     23 C          -5.5732    1.9872    2.2797 C.3     1  UNL1       -0.0316
     24 C          -6.4192    1.9891    3.4974 C.3     1  UNL1       -0.0422
     25 C          -5.6966    1.4211    4.6996 C.3     1  UNL1       -0.0624
     26 C          -7.7512    1.3155    3.3546 C.3     1  UNL1       -0.0501
     27 C          -8.0165    0.8617    1.9343 C.3     1  UNL1       -0.0481
     28 C          -6.8444   -0.0754    1.6007 C.3     1  UNL1       -0.0202
     29 C          -7.1826   -0.8316    0.3426 C.3     1  UNL1       -0.0422
     30 C          -8.4139   -1.7089    0.5483 C.3     1  UNL1       -0.0624
     31 C          -6.0726   -1.7257   -0.1017 C.3     1  UNL1       -0.0624
     32 H           4.2934   -0.4548    3.6495 H       1  UNL1        0.0230
     33 H           3.8200   -0.6917    1.9325 H       1  UNL1        0.0230
     34 H           5.5850   -0.7325    2.4180 H       1  UNL1        0.0230
     35 H           3.7814    1.7300    2.7177 H       1  UNL1        0.0263
     36 H           5.5324    1.5925    3.0707 H       1  UNL1        0.0263
     37 H           4.1573    1.1511    0.3874 H       1  UNL1        0.0265
     38 H           5.0482    2.6449    0.8116 H       1  UNL1        0.0265
     39 H           6.1791   -0.1900    0.5453 H       1  UNL1        0.0265
     40 H           7.1634    1.2511    1.1184 H       1  UNL1        0.0265
     41 H           5.6508    0.9754   -1.5001 H       1  UNL1        0.0265
     42 H           6.6220    2.4155   -0.9213 H       1  UNL1        0.0265
     43 H           8.6346    1.0151   -0.7032 H       1  UNL1        0.0265
     44 H           7.6939   -0.4511   -1.2200 H       1  UNL1        0.0265
     45 H           9.1859    0.4333   -3.0150 H       1  UNL1        0.0268
     46 H           8.3582    2.0011   -2.9662 H       1  UNL1        0.0268
     47 H           7.6983    0.6372   -4.7967 H       1  UNL1        0.0307
     48 H           6.3032    0.9843   -3.6607 H       1  UNL1        0.0307
     49 H           8.0354   -1.6204   -3.8649 H       1  UNL1        0.0569
     50 H           6.0006   -2.8420   -3.4689 H       1  UNL1        0.0569
     51 H           4.6387   -0.0289   -3.3967 H       1  UNL1        0.0307
     52 H           4.0119   -1.5103   -4.1074 H       1  UNL1        0.0307
     53 H           4.9091   -1.2462   -1.1838 H       1  UNL1        0.0268
     54 H           4.0945   -2.6499   -1.8744 H       1  UNL1        0.0268
     55 H           2.5189   -1.2095   -0.6153 H       1  UNL1        0.0265
     56 H           2.9025    0.2079   -1.6495 H       1  UNL1        0.0265
     57 H           1.6647   -2.3948   -2.7304 H       1  UNL1        0.0265
     58 H           2.1441   -0.8696   -3.6501 H       1  UNL1        0.0265
     59 H          -0.2145   -0.9757   -3.2275 H       1  UNL1        0.0265
     60 H           0.5882    0.4227   -2.4947 H       1  UNL1        0.0265
     61 H           0.5481   -0.8386   -0.2369 H       1  UNL1        0.0265
     62 H          -0.2476   -2.1850   -1.0969 H       1  UNL1        0.0265
     63 H          -1.2849    0.7061   -1.1116 H       1  UNL1        0.0270
     64 H          -2.1108   -0.7211   -1.7874 H       1  UNL1        0.0270
     65 H          -2.3110   -1.7263    0.5173 H       1  UNL1        0.0358
     66 H          -1.5505   -0.2510    1.1598 H       1  UNL1        0.0358
     67 H          -4.1150   -0.5401    2.2365 H       1  UNL1        0.1490
     68 H          -5.7326    1.1848    0.3350 H       1  UNL1        0.0501
     69 H          -4.5103    2.0685    2.6156 H       1  UNL1        0.0286
     70 H          -5.7415    2.9249    1.6993 H       1  UNL1        0.0286
     71 H          -6.6454    3.0669    3.7571 H       1  UNL1        0.0299
     72 H          -4.6554    1.1004    4.4480 H       1  UNL1        0.0232
     73 H          -6.2739    0.5649    5.1474 H       1  UNL1        0.0232
     74 H          -5.5896    2.1549    5.5254 H       1  UNL1        0.0232
     75 H          -8.6065    1.9585    3.6476 H       1  UNL1        0.0268
     76 H          -7.8116    0.4071    3.9948 H       1  UNL1        0.0268
     77 H          -8.9784    0.3233    1.9369 H       1  UNL1        0.0269
     78 H          -8.0063    1.7441    1.2699 H       1  UNL1        0.0269
     79 H          -6.7694   -0.7579    2.4705 H       1  UNL1        0.0321
     80 H          -7.4048   -0.0982   -0.4517 H       1  UNL1        0.0299
     81 H          -9.3472   -1.1192    0.4644 H       1  UNL1        0.0232
     82 H          -8.4214   -2.4314   -0.2939 H       1  UNL1        0.0232
     83 H          -8.3095   -2.2782    1.4717 H       1  UNL1        0.0232
     84 H          -5.3810   -2.0302    0.7090 H       1  UNL1        0.0232
     85 H          -6.5237   -2.7030   -0.4512 H       1  UNL1        0.0232
     86 H          -5.5538   -1.3496   -1.0170 H       1  UNL1        0.0232
@<TRIPOS>BOND
     1     1     2    1
     2     2     3    1
     3     3     4    1
     4     4     5    1
     5     5     6    1
     6     6     7    1
     7     7     8    1
     8     8     9    1
     9     9    10    2
    10    10    11    1
    11    11    12    1
    12    12    13    1
    13    13    14    1
    14    14    15    1
    15    15    16    1
    16    16    17    1
    17    17    18    1
    18    18    19    1
    19    19    20    2
    20    19    21   am
    21    21    22    1
    22    22    23    1
    23    23    24    1
    24    24    25    1
    25    24    26    1
    26    26    27    1
    27    27    28    1
    28    28    29    1
    29    29    30    1
    30    29    31    1
    31    28    22    1
    32     1    32    1
    33     1    33    1
    34     1    34    1
    35     2    35    1
    36     2    36    1
    37     3    37    1
    38     3    38    1
    39     4    39    1
    40     4    40    1
    41     5    41    1
    42     5    42    1
    43     6    43    1
    44     6    44    1
    45     7    45    1
    46     7    46    1
    47     8    47    1
    48     8    48    1
    49     9    49    1
    50    10    50    1
    51    11    51    1
    52    11    52    1
    53    12    53    1
    54    12    54    1
    55    13    55    1
    56    13    56    1
    57    14    57    1
    58    14    58    1
    59    15    59    1
    60    15    60    1
    61    16    61    1
    62    16    62    1
    63    17    63    1
    64    17    64    1
    65    18    65    1
    66    18    66    1
    67    21    67    1
    68    22    68    1
    69    23    69    1
    70    23    70    1
    71    24    71    1
    72    25    72    1
    73    25    73    1
    74    25    74    1
    75    26    75    1
    76    26    76    1
    77    27    77    1
    78    27    78    1
    79    28    79    1
    80    29    80    1
    81    30    81    1
    82    30    82    1
    83    30    83    1
    84    31    84    1
    85    31    85    1
    86    31    86    1
@<TRIPOS>MOLECULE
50542860
 56 58 0 0 0
SMALL
GASTEIGER

@<TRIPOS>ATOM
      1 C           4.8722   -3.1000   -1.1370 C.3     1  UNL1        0.0788
      2 O           3.6083   -2.7972   -0.5813 O.3     1  UNL1       -0.4951
      3 C           3.2163   -1.4580   -0.4364 C.ar    1  UNL1        0.1204
      4 C           4.0582   -0.4460   -0.8338 C.ar    1  UNL1       -0.0199
      5 C           3.6650    0.8504   -0.6872 C.ar    1  UNL1       -0.0580
      6 C           2.4228    1.1753   -0.1411 C.ar    1  UNL1       -0.0568
      7 C           1.5530    0.1933    0.2678 C.ar    1  UNL1       -0.0266
      8 C           0.2806    0.5427    0.8907 C.3     1  UNL1        0.0412
      9 N          -0.8503    0.8812    0.0829 N.am    1  UNL1       -0.2776
     10 C          -1.1600    2.2411   -0.2152 C.2     1  UNL1        0.2478
     11 O          -2.1778    2.4332   -0.9487 O.2     1  UNL1       -0.2699
     12 C          -0.4188    3.3859    0.2469 C.ar    1  UNL1        0.0369
     13 C           0.2450    4.1747   -0.6912 C.ar    1  UNL1       -0.0496
     14 C           0.9716    5.2928   -0.3720 C.ar    1  UNL1       -0.0610
     15 C           1.0685    5.6827    0.9433 C.ar    1  UNL1       -0.0617
     16 C           0.4287    4.9333    1.9023 C.ar    1  UNL1       -0.0610
     17 C          -0.3056    3.7989    1.5545 C.ar    1  UNL1       -0.0496
     18 C          -1.7623   -0.1718   -0.3435 C.3     1  UNL1        0.1282
     19 C          -1.2767   -0.9860   -1.4821 C.2     1  UNL1        0.2402
     20 O          -0.1548   -0.7627   -1.9827 O.2     1  UNL1       -0.2732
     21 N          -2.0804   -2.0387   -2.0327 N.am    1  UNL1       -0.3058
     22 C          -1.5744   -2.8518   -3.1183 C.3     1  UNL1        0.0029
     23 C          -3.4118   -2.2989   -1.5529 C.3     1  UNL1        0.0029
     24 C          -2.0758   -0.9598    0.8577 C.ar    1  UNL1       -0.0182
     25 C          -2.6922   -0.2886    1.9125 C.ar    1  UNL1       -0.0563
     26 C          -3.0013   -0.9311    3.0835 C.ar    1  UNL1       -0.0614
     27 C          -2.6938   -2.2697    3.2152 C.ar    1  UNL1       -0.0617
     28 C          -2.0830   -2.9575    2.1855 C.ar    1  UNL1       -0.0614
     29 C          -1.7874   -2.2888    1.0311 C.ar    1  UNL1       -0.0563
     30 C           2.0065   -1.1202    0.0950 C.ar    1  UNL1       -0.0153
     31 H           4.9595   -4.1697   -1.3891 H       1  UNL1        0.0660
     32 H           5.6412   -2.7645   -0.4320 H       1  UNL1        0.0660
     33 H           4.9840   -2.5600   -2.1158 H       1  UNL1        0.0660
     34 H           5.0302   -0.7136   -1.2605 H       1  UNL1        0.0654
     35 H           4.3317    1.6586   -1.0018 H       1  UNL1        0.0619
     36 H           2.2043    2.2326   -0.0589 H       1  UNL1        0.0621
     37 H           0.0024   -0.3597    1.5458 H       1  UNL1        0.0514
     38 H           0.4407    1.3456    1.6844 H       1  UNL1        0.0514
     39 H           0.2056    3.9165   -1.7547 H       1  UNL1        0.0625
     40 H           1.4796    5.8876   -1.1395 H       1  UNL1        0.0618
     41 H           1.6422    6.5684    1.2153 H       1  UNL1        0.0618
     42 H           0.4567    5.1726    2.9495 H       1  UNL1        0.0618
     43 H          -0.8068    3.2304    2.3166 H       1  UNL1        0.0625
     44 H          -2.6677    0.4076   -0.7351 H       1  UNL1        0.0648
     45 H          -1.2384   -3.8199   -2.6446 H       1  UNL1        0.0428
     46 H          -0.6467   -2.3842   -3.5000 H       1  UNL1        0.0428
     47 H          -2.3130   -3.0825   -3.8890 H       1  UNL1        0.0428
     48 H          -3.8068   -1.5105   -0.8778 H       1  UNL1        0.0428
     49 H          -3.5217   -3.2901   -1.0464 H       1  UNL1        0.0428
     50 H          -4.1382   -2.3414   -2.3944 H       1  UNL1        0.0428
     51 H          -2.9418    0.7566    1.8341 H       1  UNL1        0.0621
     52 H          -3.4789   -0.4508    3.9247 H       1  UNL1        0.0618
     53 H          -2.9225   -2.8230    4.1317 H       1  UNL1        0.0618
     54 H          -1.8335   -4.0252    2.2809 H       1  UNL1        0.0618
     55 H          -1.2989   -2.8225    0.2366 H       1  UNL1        0.0621
     56 H           1.3467   -1.9177    0.4072 H       1  UNL1        0.0657
@<TRIPOS>BOND
     1     1     2    1
     2     2     3    1
     3     3     4   ar
     4     4     5   ar
     5     5     6   ar
     6     6     7   ar
     7     7     8    1
     8     8     9    1
     9     9    10   am
    10    10    11    2
    11    10    12    1
    12    12    13   ar
    13    13    14   ar
    14    14    15   ar
    15    15    16   ar
    16    16    17   ar
    17     9    18    1
    18    18    19    1
    19    19    20    2
    20    19    21   am
    21    21    22    1
    22    21    23    1
    23    18    24    1
    24    24    25   ar
    25    25    26   ar
    26    26    27   ar
    27    27    28   ar
    28    28    29   ar
    29     7    30   ar
    30    30     3   ar
    31    17    12   ar
    32    29    24   ar
    33     1    31    1
    34     1    32    1
    35     1    33    1
    36     4    34    1
    37     5    35    1
    38     6    36    1
    39     8    37    1
    40     8    38    1
    41    13    39    1
    42    14    40    1
    43    15    41    1
    44    16    42    1
    45    17    43    1
    46    18    44    1
    47    22    45    1
    48    22    46    1
    49    22    47    1
    50    23    48    1
    51    23    49    1
    52    23    50    1
    53    25    51    1
    54    26    52    1
    55    27    53    1
    56    28    54    1
    57    29    55    1
    58    30    56    1
@<TRIPOS>MOLECULE
50254055
 55 55 0 0 0
SMALL
GASTEIGER

@<TRIPOS>ATOM
      1 C           7.7992   -2.1290   -1.4238 C.3     1  UNL1       -0.0440
      2 C           7.4493   -1.0718   -0.4494 C.2     1  UNL1       -0.0796
      3 C           8.5156   -0.3044    0.2631 C.3     1  UNL1       -0.0440
      4 C           6.1770   -0.7355   -0.1441 C.2     1  UNL1       -0.0850
      5 C           5.8506    0.3096    0.8191 C.3     1  UNL1       -0.0308
      6 C           5.1387    1.4596    0.2215 C.3     1  UNL1       -0.0285
      7 C           3.8555    1.2142   -0.4336 C.2     1  UNL1       -0.0748
      8 C           3.6985    0.3848   -1.6497 C.3     1  UNL1       -0.0437
      9 C           2.7615    1.8030    0.0660 C.2     1  UNL1       -0.0680
     10 C           1.3952    1.6824   -0.4422 C.3     1  UNL1        0.0333
     11 N           0.4888    1.1253    0.5779 N.am    1  UNL1       -0.2772
     12 C          -0.8906    0.9056    0.3434 C.2     1  UNL1        0.4058
     13 O          -1.3208    1.2169   -0.8100 O.2     1  UNL1       -0.2260
     14 O          -1.7581    0.3879    1.2756 O.3     1  UNL1       -0.4115
     15 C          -3.1014    0.1855    1.0144 C.ar    1  UNL1        0.1333
     16 C          -4.0744    1.1174    1.2367 C.ar    1  UNL1       -0.0189
     17 C          -5.4100    0.8952    0.9690 C.ar    1  UNL1       -0.0546
     18 C          -5.7752   -0.3265    0.4529 C.ar    1  UNL1       -0.0418
     19 C          -7.1856   -0.6094    0.1517 C.3     1  UNL1       -0.0127
     20 C          -7.3964   -1.9845   -0.4018 C.3     1  UNL1       -0.0560
     21 C          -7.9474   -0.5330    1.4794 C.3     1  UNL1       -0.0560
     22 C          -7.7049    0.4344   -0.8097 C.3     1  UNL1       -0.0560
     23 C          -4.8018   -1.3008    0.2144 C.ar    1  UNL1       -0.0546
     24 C          -3.4844   -1.0325    0.4972 C.ar    1  UNL1       -0.0189
     25 H           7.0155   -2.2840   -2.1930 H       1  UNL1        0.0274
     26 H           8.0196   -3.1070   -0.9265 H       1  UNL1        0.0274
     27 H           8.7275   -1.8280   -1.9354 H       1  UNL1        0.0274
     28 H           9.5201   -0.6766   -0.0952 H       1  UNL1        0.0274
     29 H           8.5112   -0.4516    1.3428 H       1  UNL1        0.0274
     30 H           8.4938    0.7716    0.0131 H       1  UNL1        0.0274
     31 H           5.4372   -1.3366   -0.6743 H       1  UNL1        0.0572
     32 H           5.3712   -0.0788    1.7497 H       1  UNL1        0.0310
     33 H           6.8408    0.7098    1.2055 H       1  UNL1        0.0310
     34 H           4.9986    2.2582    1.0096 H       1  UNL1        0.0313
     35 H           5.7904    1.9708   -0.5490 H       1  UNL1        0.0313
     36 H           3.2929   -0.6055   -1.3929 H       1  UNL1        0.0274
     37 H           4.6576    0.2146   -2.1935 H       1  UNL1        0.0274
     38 H           2.9575    0.8748   -2.3548 H       1  UNL1        0.0274
     39 H           2.8796    2.4527    0.9561 H       1  UNL1        0.0587
     40 H           1.2712    1.1459   -1.3978 H       1  UNL1        0.0507
     41 H           0.9494    2.7039   -0.6454 H       1  UNL1        0.0507
     42 H           0.8792    0.8834    1.5092 H       1  UNL1        0.1523
     43 H          -3.7929    2.0861    1.6449 H       1  UNL1        0.0654
     44 H          -6.1804    1.6261    1.1423 H       1  UNL1        0.0622
     45 H          -8.4548   -2.0682   -0.7324 H       1  UNL1        0.0238
     46 H          -7.2340   -2.7615    0.3608 H       1  UNL1        0.0238
     47 H          -6.7761   -2.1438   -1.3075 H       1  UNL1        0.0238
     48 H          -7.2615   -0.9521    2.2519 H       1  UNL1        0.0238
     49 H          -8.8915   -1.1204    1.4251 H       1  UNL1        0.0238
     50 H          -8.1084    0.5355    1.6919 H       1  UNL1        0.0238
     51 H          -8.5549    0.0753   -1.4001 H       1  UNL1        0.0238
     52 H          -6.8434    0.7499   -1.4487 H       1  UNL1        0.0238
     53 H          -7.9736    1.3274   -0.1869 H       1  UNL1        0.0238
     54 H          -5.0613   -2.2505   -0.1835 H       1  UNL1        0.0622
     55 H          -2.7595   -1.8159    0.2976 H       1  UNL1        0.0654
@<TRIPOS>BOND
     1     1     2    1
     2     2     3    1
     3     2     4    2
     4     4     5    1
     5     5     6    1
     6     6     7    1
     7     7     8    1
     8     7     9    2
     9     9    10    1
    10    10    11    1
    11    11    12   am
    12    12    13    2
    13    12    14    1
    14    14    15    1
    15    15    16   ar
    16    16    17   ar
    17    17    18   ar
    18    18    19    1
    19    19    20    1
    20    19    21    1
    21    19    22    1
    22    18    23   ar
    23    23    24   ar
    24    24    15   ar
    25     1    25    1
    26     1    26    1
    27     1    27    1
    28     3    28    1
    29     3    29    1
    30     3    30    1
    31     4    31    1
    32     5    32    1
    33     5    33    1
    34     6    34    1
    35     6    35    1
    36     8    36    1
    37     8    37    1
    38     8    38    1
    39     9    39    1
    40    10    40    1
    41    10    41    1
    42    11    42    1
    43    16    43    1
    44    17    44    1
    45    20    45    1
    46    20    46    1
    47    20    47    1
    48    21    48    1
    49    21    49    1
    50    21    50    1
    51    22    51    1
    52    22    52    1
    53    22    53    1
    54    23    54    1
    55    24    55    1
@<TRIPOS>MOLECULE
51027989
 41 42 0 0 0
SMALL
GASTEIGER

@<TRIPOS>ATOM
      1 C           7.0423   -0.2576    0.3692 C.3     1  UNL1        0.0788
      2 O           5.9693   -1.0094    0.8750 O.3     1  UNL1       -0.4951
      3 C           4.6461   -0.6924    0.7279 C.ar    1  UNL1        0.1203
      4 C           4.2037    0.4125    0.0598 C.ar    1  UNL1       -0.0165
      5 C           2.8386    0.6513   -0.0373 C.ar    1  UNL1       -0.0158
      6 C           1.8898   -0.1737    0.5091 C.ar    1  UNL1        0.1322
      7 O           0.5296    0.0833    0.4006 O.3     1  UNL1       -0.4223
      8 C          -0.2231   -0.3930   -0.6440 C.2     1  UNL1        0.3447
      9 O           0.4259   -1.0890   -1.5051 O.2     1  UNL1       -0.2445
     10 C          -1.6283   -0.2056   -0.8781 C.ar    1  UNL1        0.0631
     11 C          -2.2382   -0.7983   -1.9873 C.ar    1  UNL1       -0.0446
     12 C          -3.5744   -0.6880   -2.2734 C.ar    1  UNL1       -0.0497
     13 C          -4.1880   -1.3385   -3.4717 C.3     1  UNL1       -0.0397
     14 C          -4.3441    0.0525   -1.4081 C.ar    1  UNL1       -0.0585
     15 C          -3.7958    0.6607   -0.2969 C.ar    1  UNL1       -0.0573
     16 C          -2.4187    0.5216   -0.0416 C.ar    1  UNL1       -0.0308
     17 C          -1.8763    1.1983    1.1353 C.3     1  UNL1       -0.0207
     18 C          -1.7609    0.2461    2.3161 C.3     1  UNL1       -0.0586
     19 C          -2.8608    2.2920    1.6068 C.3     1  UNL1       -0.0586
     20 C           2.3586   -1.3011    1.1902 C.ar    1  UNL1       -0.0158
     21 C           3.7184   -1.5619    1.3011 C.ar    1  UNL1       -0.0165
     22 H           7.2685    0.5394    1.1183 H       1  UNL1        0.0660
     23 H           7.9523   -0.8480    0.2295 H       1  UNL1        0.0660
     24 H           6.8122    0.2503   -0.5829 H       1  UNL1        0.0660
     25 H           4.9209    1.0771   -0.3786 H       1  UNL1        0.0655
     26 H           2.5384    1.5409   -0.5772 H       1  UNL1        0.0655
     27 H          -1.6322   -1.3846   -2.6735 H       1  UNL1        0.0628
     28 H          -3.4145   -1.5751   -4.2065 H       1  UNL1        0.0278
     29 H          -4.8534   -0.5694   -3.9281 H       1  UNL1        0.0278
     30 H          -4.7912   -2.2007   -3.1542 H       1  UNL1        0.0278
     31 H          -5.4166    0.1589   -1.6100 H       1  UNL1        0.0620
     32 H          -4.4153    1.2412    0.3795 H       1  UNL1        0.0621
     33 H          -0.8945    1.6783    0.9997 H       1  UNL1        0.0344
     34 H          -2.6603    0.2992    2.9656 H       1  UNL1        0.0235
     35 H          -1.6058   -0.7629    1.8974 H       1  UNL1        0.0235
     36 H          -0.9242    0.6088    2.9443 H       1  UNL1        0.0235
     37 H          -3.2549    2.8549    0.7425 H       1  UNL1        0.0235
     38 H          -2.3340    3.0288    2.2532 H       1  UNL1        0.0235
     39 H          -3.7091    1.8684    2.1654 H       1  UNL1        0.0235
     40 H           1.6539   -1.9709    1.6314 H       1  UNL1        0.0655
     41 H           4.0458   -2.4445    1.8357 H       1  UNL1        0.0655
@<TRIPOS>BOND
     1     1     2    1
     2     2     3    1
     3     3     4   ar
     4     4     5   ar
     5     5     6   ar
     6     6     7    1
     7     7     8    1
     8     8     9    2
     9     8    10    1
    10    10    11   ar
    11    11    12   ar
    12    12    13    1
    13    12    14   ar
    14    14    15   ar
    15    15    16   ar
    16    16    17    1
    17    17    18    1
    18    17    19    1
    19     6    20   ar
    20    20    21   ar
    21    21     3   ar
    22    16    10   ar
    23     1    22    1
    24     1    23    1
    25     1    24    1
    26     4    25    1
    27     5    26    1
    28    11    27    1
    29    13    28    1
    30    13    29    1
    31    13    30    1
    32    14    31    1
    33    15    32    1
    34    17    33    1
    35    18    34    1
    36    18    35    1
    37    18    36    1
    38    19    37    1
    39    19    38    1
    40    19    39    1
    41    20    40    1
    42    21    41    1
@<TRIPOS>MOLECULE
50254058
 34 33 0 0 0
SMALL
GASTEIGER

@<TRIPOS>ATOM
      1 C           4.7120    0.1095    2.1634 C.3     1  UNL1        0.0332
      2 C           3.5498    0.2294    1.2127 C.2     1  UNL1        0.3042
      3 O           2.3750    0.2025    1.5869 O.2     1  UNL1       -0.2512
      4 O           3.8596    0.3723   -0.1126 O.3     1  UNL1       -0.4606
      5 C           2.9102    0.5005   -1.1538 C.3     1  UNL1        0.1109
      6 C           1.9848   -0.6030   -1.2980 C.2     1  UNL1       -0.0480
      7 C           0.6676   -0.6157   -1.2227 C.2     1  UNL1       -0.0731
      8 C          -0.1071   -1.8959   -1.4065 C.3     1  UNL1       -0.0437
      9 C          -0.0517    0.6223   -0.9964 C.3     1  UNL1       -0.0285
     10 C          -0.8986    0.7113    0.2443 C.3     1  UNL1       -0.0308
     11 C          -1.9830   -0.2656    0.3617 C.2     1  UNL1       -0.0850
     12 C          -3.2505    0.1207    0.4010 C.2     1  UNL1       -0.0796
     13 C          -4.3375   -0.8759    0.5198 C.3     1  UNL1       -0.0440
     14 C          -3.5616    1.5611    0.3244 C.3     1  UNL1       -0.0440
     15 H           5.1801    1.1088    2.2133 H       1  UNL1        0.0342
     16 H           5.4213   -0.5918    1.6870 H       1  UNL1        0.0342
     17 H           4.3925   -0.2810    3.1405 H       1  UNL1        0.0342
     18 H           3.5500    0.4982   -2.1011 H       1  UNL1        0.0743
     19 H           2.5251    1.5144   -1.1064 H       1  UNL1        0.0743
     20 H           2.4399   -1.5930   -1.5033 H       1  UNL1        0.0605
     21 H           0.3476   -2.4899   -2.2546 H       1  UNL1        0.0274
     22 H          -0.0684   -2.5603   -0.5501 H       1  UNL1        0.0274
     23 H          -1.1038   -1.6174   -1.7875 H       1  UNL1        0.0274
     24 H          -0.8107    0.7020   -1.8480 H       1  UNL1        0.0313
     25 H           0.5682    1.5437   -0.9799 H       1  UNL1        0.0313
     26 H          -0.2430    0.7200    1.1573 H       1  UNL1        0.0310
     27 H          -1.3739    1.7424    0.2904 H       1  UNL1        0.0310
     28 H          -1.8173   -1.3510    0.4372 H       1  UNL1        0.0572
     29 H          -4.4896   -1.1631    1.5992 H       1  UNL1        0.0274
     30 H          -4.0937   -1.7651   -0.1023 H       1  UNL1        0.0274
     31 H          -5.3166   -0.4838    0.1760 H       1  UNL1        0.0274
     32 H          -3.1742    2.0248   -0.6294 H       1  UNL1        0.0274
     33 H          -3.1536    2.1060    1.2190 H       1  UNL1        0.0274
     34 H          -4.6487    1.7615    0.3186 H       1  UNL1        0.0274
@<TRIPOS>BOND
     1     1     2    1
     2     2     3    2
     3     2     4    1
     4     4     5    1
     5     5     6    1
     6     6     7    2
     7     7     8    1
     8     7     9    1
     9     9    10    1
    10    10    11    1
    11    11    12    2
    12    12    13    1
    13    12    14    1
    14     1    15    1
    15     1    16    1
    16     1    17    1
    17     5    18    1
    18     5    19    1
    19     6    20    1
    20     8    21    1
    21     8    22    1
    22     8    23    1
    23     9    24    1
    24     9    25    1
    25    10    26    1
    26    10    27    1
    27    11    28    1
    28    13    29    1
    29    13    30    1
    30    13    31    1
    31    14    32    1
    32    14    33    1
    33    14    34    1
@<TRIPOS>MOLECULE
50254157
 34 33 0 0 0
SMALL
GASTEIGER

@<TRIPOS>ATOM
      1 C           5.8373    1.1228    1.1664 C.3     1  UNL1        0.0332
      2 C           5.0570    0.0981    0.3906 C.2     1  UNL1        0.3042
      3 O           5.5579   -1.0146    0.0900 O.2     1  UNL1       -0.2512
      4 O           3.7556    0.3419   -0.0225 O.3     1  UNL1       -0.4606
      5 C           3.0412   -0.6436   -0.7541 C.3     1  UNL1        0.1109
      6 C           1.6950   -0.0741   -1.0384 C.2     1  UNL1       -0.0480
      7 C           0.5623   -0.6209   -0.6285 C.2     1  UNL1       -0.0731
      8 C           0.6303   -1.8746    0.1606 C.3     1  UNL1       -0.0437
      9 C          -0.7198    0.0166   -0.9595 C.3     1  UNL1       -0.0285
     10 C          -1.5181    0.4124    0.2758 C.3     1  UNL1       -0.0308
     11 C          -2.7833    1.0416   -0.2080 C.2     1  UNL1       -0.0850
     12 C          -3.9765    0.5664    0.0821 C.2     1  UNL1       -0.0796
     13 C          -4.0866   -0.6462    0.9249 C.3     1  UNL1       -0.0440
     14 C          -5.1882    1.2399   -0.4310 C.3     1  UNL1       -0.0440
     15 H           5.4323    2.1365    0.9761 H       1  UNL1        0.0342
     16 H           5.7972    0.9236    2.2411 H       1  UNL1        0.0342
     17 H           6.8613    1.1149    0.7396 H       1  UNL1        0.0342
     18 H           3.5229   -0.8571   -1.7314 H       1  UNL1        0.0743
     19 H           2.9608   -1.5972   -0.1992 H       1  UNL1        0.0743
     20 H           1.6488    0.8426   -1.6156 H       1  UNL1        0.0605
     21 H           1.0497   -2.6639   -0.4974 H       1  UNL1        0.0274
     22 H           1.3350   -1.7395    1.0301 H       1  UNL1        0.0274
     23 H          -0.3661   -2.1464    0.5696 H       1  UNL1        0.0274
     24 H          -0.5590    0.9176   -1.5861 H       1  UNL1        0.0313
     25 H          -1.3489   -0.6757   -1.5842 H       1  UNL1        0.0313
     26 H          -0.9082    1.0973    0.8903 H       1  UNL1        0.0310
     27 H          -1.6946   -0.4998    0.8486 H       1  UNL1        0.0310
     28 H          -2.7219    1.9332   -0.8285 H       1  UNL1        0.0572
     29 H          -3.5803   -1.5242    0.4773 H       1  UNL1        0.0274
     30 H          -5.1384   -0.9517    1.0971 H       1  UNL1        0.0274
     31 H          -3.6088   -0.4801    1.9319 H       1  UNL1        0.0274
     32 H          -5.2788    2.2953   -0.0762 H       1  UNL1        0.0274
     33 H          -5.1502    1.2167   -1.5595 H       1  UNL1        0.0274
     34 H          -6.1170    0.6923   -0.1705 H       1  UNL1        0.0274
@<TRIPOS>BOND
     1     1     2    1
     2     2     3    2
     3     2     4    1
     4     4     5    1
     5     5     6    1
     6     6     7    2
     7     7     8    1
     8     7     9    1
     9     9    10    1
    10    10    11    1
    11    11    12    2
    12    12    13    1
    13    12    14    1
    14     1    15    1
    15     1    16    1
    16     1    17    1
    17     5    18    1
    18     5    19    1
    19     6    20    1
    20     8    21    1
    21     8    22    1
    22     8    23    1
    23     9    24    1
    24     9    25    1
    25    10    26    1
    26    10    27    1
    27    11    28    1
    28    13    29    1
    29    13    30    1
    30    13    31    1
    31    14    32    1
    32    14    33    1
    33    14    34    1
@<TRIPOS>MOLECULE
50254075
 36 35 0 0 0
SMALL
GASTEIGER

@<TRIPOS>ATOM
      1 C           5.0435   -1.0304   -1.6623 C.3     1  UNL1        0.0332
      2 C           4.4437    0.0077   -0.8058 C.2     1  UNL1        0.3039
      3 O           4.9801    1.1421   -0.7912 O.2     1  UNL1       -0.2512
      4 O           3.3292   -0.1910   -0.0192 O.3     1  UNL1       -0.4648
      5 C           2.7662    0.8151    0.7968 C.3     1  UNL1        0.0927
      6 C           1.5675    0.3535    1.5489 C.3     1  UNL1       -0.0159
      7 C           0.4273   -0.1194    0.6532 C.3     1  UNL1       -0.0405
      8 C           0.9320   -1.2613   -0.1618 C.3     1  UNL1       -0.0623
      9 C          -0.8146   -0.3850    1.4400 C.3     1  UNL1       -0.0469
     10 C          -1.9698   -0.8468    0.6294 C.3     1  UNL1       -0.0343
     11 C          -2.3879    0.1182   -0.4162 C.2     1  UNL1       -0.0853
     12 C          -3.5679    0.6740   -0.5018 C.2     1  UNL1       -0.0796
     13 C          -3.8694    1.6219   -1.5889 C.3     1  UNL1       -0.0440
     14 C          -4.6045    0.3489    0.4979 C.3     1  UNL1       -0.0440
     15 H           4.6213   -2.0371   -1.4235 H       1  UNL1        0.0342
     16 H           4.7892   -0.8268   -2.7159 H       1  UNL1        0.0342
     17 H           6.1480   -1.0324   -1.5439 H       1  UNL1        0.0342
     18 H           3.5346    1.1007    1.5424 H       1  UNL1        0.0697
     19 H           2.5861    1.7171    0.1775 H       1  UNL1        0.0697
     20 H           1.8915   -0.4544    2.2414 H       1  UNL1        0.0301
     21 H           1.1445    1.1495    2.1895 H       1  UNL1        0.0301
     22 H           0.2312    0.7231   -0.0763 H       1  UNL1        0.0299
     23 H           1.4224   -0.9656   -1.1096 H       1  UNL1        0.0232
     24 H           0.1310   -2.0117   -0.3151 H       1  UNL1        0.0232
     25 H           1.7054   -1.7931    0.4446 H       1  UNL1        0.0232
     26 H          -1.0263    0.4900    2.0721 H       1  UNL1        0.0271
     27 H          -0.5527   -1.2078    2.1698 H       1  UNL1        0.0271
     28 H          -1.8297   -1.8313    0.1492 H       1  UNL1        0.0307
     29 H          -2.8697   -0.9779    1.2949 H       1  UNL1        0.0307
     30 H          -1.6323    0.3617   -1.1536 H       1  UNL1        0.0571
     31 H          -2.9939    2.2759   -1.8408 H       1  UNL1        0.0274
     32 H          -4.2121    1.0674   -2.5104 H       1  UNL1        0.0274
     33 H          -4.6970    2.3232   -1.3439 H       1  UNL1        0.0274
     34 H          -4.2609    0.4985    1.5404 H       1  UNL1        0.0274
     35 H          -4.8799   -0.7306    0.3186 H       1  UNL1        0.0274
     36 H          -5.5260    0.9142    0.2740 H       1  UNL1        0.0274
@<TRIPOS>BOND
     1     1     2    1
     2     2     3    2
     3     2     4    1
     4     4     5    1
     5     5     6    1
     6     6     7    1
     7     7     8    1
     8     7     9    1
     9     9    10    1
    10    10    11    1
    11    11    12    2
    12    12    13    1
    13    12    14    1
    14     1    15    1
    15     1    16    1
    16     1    17    1
    17     5    18    1
    18     5    19    1
    19     6    20    1
    20     6    21    1
    21     7    22    1
    22     8    23    1
    23     8    24    1
    24     8    25    1
    25     9    26    1
    26     9    27    1
    27    10    28    1
    28    10    29    1
    29    11    30    1
    30    13    31    1
    31    13    32    1
    32    13    33    1
    33    14    34    1
    34    14    35    1
    35    14    36    1
@<TRIPOS>MOLECULE
50575082
 60 63 0 0 0
SMALL
GASTEIGER

@<TRIPOS>ATOM
      1 C          -2.1687   -1.2489   -1.7854 C.3     1  UNL1       -0.0624
      2 C          -2.7329   -1.6460   -0.4557 C.3     1  UNL1       -0.0422
      3 C          -3.7019   -2.8031   -0.5801 C.3     1  UNL1       -0.0624
      4 C          -3.3245   -0.5112    0.3111 C.3     1  UNL1       -0.0202
      5 C          -4.4476    0.1403   -0.4307 C.3     1  UNL1       -0.0481
      6 C          -4.9874    1.3430    0.2525 C.3     1  UNL1       -0.0501
      7 C          -3.9475    2.2608    0.8204 C.3     1  UNL1       -0.0422
      8 C          -4.6265    3.2336    1.7638 C.3     1  UNL1       -0.0624
      9 C          -2.8832    1.4944    1.6051 C.3     1  UNL1       -0.0316
     10 C          -2.2774    0.5245    0.6069 C.3     1  UNL1        0.0279
     11 N          -1.0380   -0.0358    1.0605 N.am    1  UNL1       -0.2963
     12 C           0.1803    0.1738    0.4055 C.2     1  UNL1        0.3003
     13 O           0.2375    0.8655   -0.6125 O.2     1  UNL1       -0.2528
     14 N           1.3554   -0.4112    0.9134 N.am    1  UNL1       -0.2938
     15 C           2.6357   -0.2602    0.3218 C.3     1  UNL1        0.0368
     16 C           3.1122    1.1635    0.2281 C.3     1  UNL1       -0.0287
     17 C           4.5014    1.1422   -0.3771 C.3     1  UNL1       -0.0386
     18 C           5.4630    0.3830    0.4816 C.3     1  UNL1       -0.0472
     19 C           5.0156   -1.0561    0.5338 C.3     1  UNL1       -0.0386
     20 C           4.9812   -1.6385   -0.8660 C.3     1  UNL1       -0.0472
     21 C           3.9944   -0.8746   -1.6888 C.3     1  UNL1       -0.0386
     22 C           4.4926    0.5642   -1.7838 C.3     1  UNL1       -0.0472
     23 C           2.6067   -0.8310   -1.0933 C.3     1  UNL1       -0.0287
     24 C           3.6282   -1.1249    1.0809 C.3     1  UNL1       -0.0287
     25 H          -2.0725   -0.1702   -1.9404 H       1  UNL1        0.0232
     26 H          -2.7911   -1.6437   -2.6331 H       1  UNL1        0.0232
     27 H          -1.1465   -1.6873   -1.9691 H       1  UNL1        0.0232
     28 H          -1.8658   -2.0352    0.1547 H       1  UNL1        0.0299
     29 H          -3.1456   -3.7454   -0.5700 H       1  UNL1        0.0232
     30 H          -4.4208   -2.7141    0.2689 H       1  UNL1        0.0232
     31 H          -4.2894   -2.7657   -1.5174 H       1  UNL1        0.0232
     32 H          -3.7085   -0.9047    1.2686 H       1  UNL1        0.0321
     33 H          -4.1725    0.3422   -1.4997 H       1  UNL1        0.0269
     34 H          -5.2822   -0.6174   -0.4948 H       1  UNL1        0.0269
     35 H          -5.6850    1.0732    1.0687 H       1  UNL1        0.0268
     36 H          -5.5826    1.9286   -0.4797 H       1  UNL1        0.0268
     37 H          -3.3937    2.8314    0.0409 H       1  UNL1        0.0299
     38 H          -4.0665    4.1933    1.7084 H       1  UNL1        0.0232
     39 H          -4.5364    2.8115    2.7834 H       1  UNL1        0.0232
     40 H          -5.7022    3.3785    1.4831 H       1  UNL1        0.0232
     41 H          -3.3778    0.9088    2.3844 H       1  UNL1        0.0286
     42 H          -2.1592    2.2257    1.9762 H       1  UNL1        0.0286
     43 H          -2.0688    1.1160   -0.3098 H       1  UNL1        0.0501
     44 H          -1.0840   -0.6325    1.9377 H       1  UNL1        0.1505
     45 H           1.2782   -1.0019    1.7949 H       1  UNL1        0.1508
     46 H           3.1702    1.6724    1.1902 H       1  UNL1        0.0288
     47 H           2.4593    1.6742   -0.5160 H       1  UNL1        0.0288
     48 H           4.8626    2.2067   -0.4693 H       1  UNL1        0.0302
     49 H           5.4070    0.7919    1.5129 H       1  UNL1        0.0271
     50 H           6.4644    0.4455    0.0516 H       1  UNL1        0.0271
     51 H           5.6761   -1.6299    1.1818 H       1  UNL1        0.0302
     52 H           5.9855   -1.4616   -1.3009 H       1  UNL1        0.0271
     53 H           4.8235   -2.7208   -0.8472 H       1  UNL1        0.0271
     54 H           3.8924   -1.2944   -2.7075 H       1  UNL1        0.0302
     55 H           5.5708    0.4863   -2.0796 H       1  UNL1        0.0271
     56 H           3.9090    1.1656   -2.4794 H       1  UNL1        0.0271
     57 H           2.0271   -0.1239   -1.7104 H       1  UNL1        0.0288
     58 H           2.1115   -1.8198   -1.1006 H       1  UNL1        0.0288
     59 H           3.2692   -2.1836    0.9348 H       1  UNL1        0.0288
     60 H           3.5756   -0.9470    2.1742 H       1  UNL1        0.0288
@<TRIPOS>BOND
     1     1     2    1
     2     2     3    1
     3     2     4    1
     4     4     5    1
     5     5     6    1
     6     6     7    1
     7     7     8    1
     8     7     9    1
     9     9    10    1
    10    10    11    1
    11    11    12   am
    12    12    13    2
    13    12    14   am
    14    14    15    1
    15    15    16    1
    16    16    17    1
    17    17    18    1
    18    18    19    1
    19    19    20    1
    20    20    21    1
    21    21    22    1
    22    21    23    1
    23    19    24    1
    24    10     4    1
    25    23    15    1
    26    24    15    1
    27    22    17    1
    28     1    25    1
    29     1    26    1
    30     1    27    1
    31     2    28    1
    32     3    29    1
    33     3    30    1
    34     3    31    1
    35     4    32    1
    36     5    33    1
    37     5    34    1
    38     6    35    1
    39     6    36    1
    40     7    37    1
    41     8    38    1
    42     8    39    1
    43     8    40    1
    44     9    41    1
    45     9    42    1
    46    10    43    1
    47    11    44    1
    48    14    45    1
    49    16    46    1
    50    16    47    1
    51    17    48    1
    52    18    49    1
    53    18    50    1
    54    19    51    1
    55    20    52    1
    56    20    53    1
    57    21    54    1
    58    22    55    1
    59    22    56    1
    60    23    57    1
    61    23    58    1
    62    24    59    1
    63    24    60    1
@<TRIPOS>MOLECULE
50254056
 56 56 0 0 0
SMALL
GASTEIGER

@<TRIPOS>ATOM
      1 C           7.6334   -3.1490   -0.2169 C.3     1  UNL1       -0.0440
      2 C           7.0535   -1.7612   -0.2419 C.2     1  UNL1       -0.0796
      3 C           7.8631   -0.6370    0.2689 C.3     1  UNL1       -0.0440
      4 C           5.8336   -1.5582   -0.7167 C.2     1  UNL1       -0.0850
      5 C           5.2792   -0.1873   -0.7337 C.3     1  UNL1       -0.0308
      6 C           4.0250   -0.1611    0.1009 C.3     1  UNL1       -0.0285
      7 C           3.4253    1.2034    0.1163 C.2     1  UNL1       -0.0748
      8 C           4.1449    2.3912    0.6293 C.3     1  UNL1       -0.0437
      9 C           2.1996    1.3749   -0.3443 C.2     1  UNL1       -0.0680
     10 C           1.5686    2.7252   -0.3442 C.3     1  UNL1        0.0316
     11 N           0.3513    2.7593    0.4485 N.am    1  UNL1       -0.2956
     12 C          -0.7730    1.9581    0.1825 C.2     1  UNL1        0.3041
     13 O          -0.7206    1.1669   -0.7982 O.2     1  UNL1       -0.2525
     14 N          -1.9669    1.9782    0.9440 N.am    1  UNL1       -0.2695
     15 C          -3.0987    1.1763    0.6816 C.ar    1  UNL1        0.0348
     16 C          -4.0893    1.6334   -0.1550 C.ar    1  UNL1       -0.0402
     17 C          -5.2213    0.8522   -0.4282 C.ar    1  UNL1       -0.0563
     18 C          -5.3478   -0.3949    0.1486 C.ar    1  UNL1       -0.0419
     19 C          -6.5737   -1.1615   -0.1888 C.3     1  UNL1       -0.0127
     20 C          -6.5986   -2.5081    0.5009 C.3     1  UNL1       -0.0560
     21 C          -6.5885   -1.4111   -1.6703 C.3     1  UNL1       -0.0560
     22 C          -7.7674   -0.3150    0.1589 C.3     1  UNL1       -0.0560
     23 C          -4.3711   -0.8567    0.9791 C.ar    1  UNL1       -0.0563
     24 C          -3.2450   -0.0676    1.2448 C.ar    1  UNL1       -0.0402
     25 H           6.8537   -3.8556    0.1566 H       1  UNL1        0.0274
     26 H           7.8680   -3.4317   -1.2705 H       1  UNL1        0.0274
     27 H           8.5332   -3.1639    0.4337 H       1  UNL1        0.0274
     28 H           7.9898    0.1128   -0.5547 H       1  UNL1        0.0274
     29 H           7.3521   -0.1082    1.1083 H       1  UNL1        0.0274
     30 H           8.8731   -0.9772    0.5550 H       1  UNL1        0.0274
     31 H           5.2585   -2.3953   -1.0855 H       1  UNL1        0.0572
     32 H           6.0052    0.5203   -0.3139 H       1  UNL1        0.0310
     33 H           5.0169    0.0406   -1.7922 H       1  UNL1        0.0310
     34 H           4.3094   -0.4159    1.1454 H       1  UNL1        0.0313
     35 H           3.3025   -0.9207   -0.2226 H       1  UNL1        0.0313
     36 H           5.1235    2.1375    1.0841 H       1  UNL1        0.0274
     37 H           4.3417    3.0664   -0.2070 H       1  UNL1        0.0274
     38 H           3.5283    2.8289    1.4390 H       1  UNL1        0.0274
     39 H           1.6605    0.5144   -0.7230 H       1  UNL1        0.0587
     40 H           2.2593    3.5097   -0.0080 H       1  UNL1        0.0506
     41 H           1.3143    2.9631   -1.4072 H       1  UNL1        0.0506
     42 H           0.2930    3.4123    1.2674 H       1  UNL1        0.1506
     43 H          -1.9759    2.6552    1.7609 H       1  UNL1        0.1564
     44 H          -4.0039    2.6131   -0.6165 H       1  UNL1        0.0636
     45 H          -5.9613    1.2772   -1.0969 H       1  UNL1        0.0621
     46 H          -6.6530   -2.4218    1.5969 H       1  UNL1        0.0238
     47 H          -7.5295   -3.0166    0.1759 H       1  UNL1        0.0238
     48 H          -5.7467   -3.0865    0.1325 H       1  UNL1        0.0238
     49 H          -7.2912   -2.2528   -1.9278 H       1  UNL1        0.0238
     50 H          -6.9891   -0.5230   -2.2199 H       1  UNL1        0.0238
     51 H          -5.5594   -1.6345   -2.0082 H       1  UNL1        0.0238
     52 H          -7.4784    0.5882    0.7503 H       1  UNL1        0.0238
     53 H          -8.5167   -0.9364    0.7004 H       1  UNL1        0.0238
     54 H          -8.2776    0.0924   -0.7530 H       1  UNL1        0.0238
     55 H          -4.4551   -1.8252    1.4358 H       1  UNL1        0.0621
     56 H          -2.4605   -0.4169    1.9007 H       1  UNL1        0.0636
@<TRIPOS>BOND
     1     1     2    1
     2     2     3    1
     3     2     4    2
     4     4     5    1
     5     5     6    1
     6     6     7    1
     7     7     8    1
     8     7     9    2
     9     9    10    1
    10    10    11    1
    11    11    12   am
    12    12    13    2
    13    12    14   am
    14    14    15    1
    15    15    16   ar
    16    16    17   ar
    17    17    18   ar
    18    18    19    1
    19    19    20    1
    20    19    21    1
    21    19    22    1
    22    18    23   ar
    23    23    24   ar
    24    24    15   ar
    25     1    25    1
    26     1    26    1
    27     1    27    1
    28     3    28    1
    29     3    29    1
    30     3    30    1
    31     4    31    1
    32     5    32    1
    33     5    33    1
    34     6    34    1
    35     6    35    1
    36     8    36    1
    37     8    37    1
    38     8    38    1
    39     9    39    1
    40    10    40    1
    41    10    41    1
    42    11    42    1
    43    14    43    1
    44    16    44    1
    45    17    45    1
    46    20    46    1
    47    20    47    1
    48    20    48    1
    49    21    49    1
    50    21    50    1
    51    21    51    1
    52    22    52    1
    53    22    53    1
    54    22    54    1
    55    23    55    1
    56    24    56    1
@<TRIPOS>MOLECULE
50254022
 44 44 0 0 0
SMALL
GASTEIGER

@<TRIPOS>ATOM
      1 C          -4.7608    1.0042   -1.1787 C.3     1  UNL1       -0.0440
      2 C          -5.0426    0.3240    0.0935 C.2     1  UNL1       -0.0796
      3 C          -6.1202   -0.6919    0.1642 C.3     1  UNL1       -0.0440
      4 C          -4.3321    0.6219    1.1713 C.2     1  UNL1       -0.0850
      5 C          -3.2555    1.6228    1.1429 C.3     1  UNL1       -0.0308
      6 C          -1.9463    1.0101    1.4919 C.3     1  UNL1       -0.0285
      7 C          -1.5032   -0.0567    0.5676 C.2     1  UNL1       -0.0748
      8 C          -2.2821   -1.2858    0.4066 C.3     1  UNL1       -0.0437
      9 C          -0.3682    0.0506   -0.1332 C.2     1  UNL1       -0.0680
     10 C           0.0436   -1.0143   -1.0376 C.3     1  UNL1        0.0316
     11 N           1.3448   -1.5897   -0.6628 N.am    1  UNL1       -0.2956
     12 C           2.5159   -0.8038   -0.6114 C.2     1  UNL1        0.3041
     13 O           2.3995    0.4269   -0.9035 O.2     1  UNL1       -0.2525
     14 N           3.7967   -1.3134   -0.2550 N.am    1  UNL1       -0.2694
     15 C           4.9564   -0.4844   -0.2152 C.ar    1  UNL1        0.0361
     16 C           5.7370   -0.3340   -1.3415 C.ar    1  UNL1       -0.0403
     17 C           6.8750    0.4627   -1.3501 C.ar    1  UNL1       -0.0586
     18 C           7.2602    1.1373   -0.2075 C.ar    1  UNL1       -0.0433
     19 C           6.4797    0.9872    0.9194 C.ar    1  UNL1        0.0427
     20 CL          6.9642    1.8372    2.3607 Cl      1  UNL1       -0.0835
     21 C           5.3460    0.1920    0.9237 C.ar    1  UNL1       -0.0221
     22 H          -5.3948    0.6618   -2.0010 H       1  UNL1        0.0274
     23 H          -3.7009    0.7896   -1.4708 H       1  UNL1        0.0274
     24 H          -4.8312    2.1173   -1.0995 H       1  UNL1        0.0274
     25 H          -7.0814   -0.1919   -0.1193 H       1  UNL1        0.0274
     26 H          -6.1887   -1.1368    1.1879 H       1  UNL1        0.0274
     27 H          -5.8602   -1.5097   -0.5628 H       1  UNL1        0.0274
     28 H          -4.5577    0.1169    2.1101 H       1  UNL1        0.0572
     29 H          -3.5186    2.4658    1.8361 H       1  UNL1        0.0310
     30 H          -3.1833    2.0223    0.0996 H       1  UNL1        0.0310
     31 H          -1.9836    0.5531    2.5179 H       1  UNL1        0.0313
     32 H          -1.1895    1.8432    1.5405 H       1  UNL1        0.0313
     33 H          -1.5731   -2.1449    0.5630 H       1  UNL1        0.0274
     34 H          -2.8052   -1.3936   -0.5545 H       1  UNL1        0.0274
     35 H          -3.0488   -1.4494    1.2113 H       1  UNL1        0.0274
     36 H           0.2119    0.9490    0.0051 H       1  UNL1        0.0587
     37 H          -0.6459   -1.8486   -1.1722 H       1  UNL1        0.0506
     38 H           0.1396   -0.5536   -2.0709 H       1  UNL1        0.0506
     39 H           1.4265   -2.6007   -0.4252 H       1  UNL1        0.1506
     40 H           3.8957   -2.3119   -0.0171 H       1  UNL1        0.1564
     41 H           5.4257   -0.8695   -2.2373 H       1  UNL1        0.0636
     42 H           7.4762    0.5646   -2.2567 H       1  UNL1        0.0619
     43 H           8.1521    1.7556   -0.2315 H       1  UNL1        0.0632
     44 H           4.7273    0.0683    1.8035 H       1  UNL1        0.0651
@<TRIPOS>BOND
     1     1     2    1
     2     2     3    1
     3     2     4    2
     4     4     5    1
     5     5     6    1
     6     6     7    1
     7     7     8    1
     8     7     9    2
     9     9    10    1
    10    10    11    1
    11    11    12   am
    12    12    13    2
    13    12    14   am
    14    14    15    1
    15    15    16   ar
    16    16    17   ar
    17    17    18   ar
    18    18    19   ar
    19    19    20    1
    20    19    21   ar
    21    21    15   ar
    22     1    22    1
    23     1    23    1
    24     1    24    1
    25     3    25    1
    26     3    26    1
    27     3    27    1
    28     4    28    1
    29     5    29    1
    30     5    30    1
    31     6    31    1
    32     6    32    1
    33     8    33    1
    34     8    34    1
    35     8    35    1
    36     9    36    1
    37    10    37    1
    38    10    38    1
    39    11    39    1
    40    14    40    1
    41    16    41    1
    42    17    42    1
    43    18    43    1
    44    21    44    1
@<TRIPOS>MOLECULE
50254023
 50 50 0 0 0
SMALL
GASTEIGER

@<TRIPOS>ATOM
      1 C           5.4922   -0.8981    1.9380 C.3     1  UNL1       -0.0440
      2 C           5.0385   -0.3826    0.5535 C.2     1  UNL1       -0.0796
      3 C           5.1966    1.0751    0.4053 C.3     1  UNL1       -0.0440
      4 C           4.6224   -1.2627   -0.2927 C.2     1  UNL1       -0.0850
      5 C           4.1264   -1.1772   -1.6441 C.3     1  UNL1       -0.0308
      6 C           3.7542    0.1113   -2.2631 C.3     1  UNL1       -0.0285
      7 C           2.6254    0.8265   -1.6106 C.2     1  UNL1       -0.0748
      8 C           2.2378    2.1530   -2.1873 C.3     1  UNL1       -0.0437
      9 C           2.0177    0.2924   -0.5790 C.2     1  UNL1       -0.0680
     10 C           0.8812    1.0498    0.0512 C.3     1  UNL1        0.0316
     11 N          -0.2999    0.2125   -0.0437 N.am    1  UNL1       -0.2959
     12 C          -1.5653    0.6188    0.4562 C.2     1  UNL1        0.3001
     13 O          -1.6310    1.7646    1.0013 O.2     1  UNL1       -0.2528
     14 N          -2.7380   -0.1564    0.3879 N.am    1  UNL1       -0.2966
     15 C          -4.0162    0.3292    0.9276 C.3     1  UNL1        0.0246
     16 C          -4.9890    0.5011   -0.2136 C.3     1  UNL1       -0.0345
     17 C          -5.6304   -0.7880   -0.6358 C.3     1  UNL1       -0.0514
     18 C          -6.1802   -1.5666    0.5281 C.3     1  UNL1       -0.0529
     19 C          -5.9891   -0.7879    1.8197 C.3     1  UNL1       -0.0514
     20 C          -4.5130   -0.5703    2.0083 C.3     1  UNL1       -0.0345
     21 H           5.0123   -1.8723    2.1091 H       1  UNL1        0.0274
     22 H           5.2393   -0.1531    2.7025 H       1  UNL1        0.0274
     23 H           6.5826   -1.0255    1.8893 H       1  UNL1        0.0274
     24 H           5.9299    1.4710    1.1998 H       1  UNL1        0.0274
     25 H           5.6849    1.3325   -0.5537 H       1  UNL1        0.0274
     26 H           4.2563    1.6284    0.5343 H       1  UNL1        0.0274
     27 H           4.6634   -2.3315    0.1442 H       1  UNL1        0.0572
     28 H           3.3090   -1.9534   -1.8283 H       1  UNL1        0.0310
     29 H           4.9497   -1.6063   -2.3316 H       1  UNL1        0.0310
     30 H           3.3060   -0.1766   -3.2898 H       1  UNL1        0.0313
     31 H           4.5842    0.7924   -2.4196 H       1  UNL1        0.0313
     32 H           1.1324    2.1653   -2.4194 H       1  UNL1        0.0274
     33 H           2.4948    2.9926   -1.5275 H       1  UNL1        0.0274
     34 H           2.7250    2.3204   -3.1685 H       1  UNL1        0.0274
     35 H           2.2520   -0.6515   -0.1324 H       1  UNL1        0.0587
     36 H           0.6970    2.0166   -0.4350 H       1  UNL1        0.0506
     37 H           1.0903    1.2414    1.1233 H       1  UNL1        0.0506
     38 H          -0.2756   -0.7458   -0.4921 H       1  UNL1        0.1505
     39 H          -2.6839   -1.0978   -0.0600 H       1  UNL1        0.1505
     40 H          -3.8303    1.3385    1.3476 H       1  UNL1        0.0499
     41 H          -5.7393    1.2731    0.0840 H       1  UNL1        0.0283
     42 H          -4.4374    0.9112   -1.0892 H       1  UNL1        0.0283
     43 H          -4.8973   -1.3568   -1.2207 H       1  UNL1        0.0266
     44 H          -6.4650   -0.5270   -1.3261 H       1  UNL1        0.0266
     45 H          -7.2379   -1.8606    0.3969 H       1  UNL1        0.0265
     46 H          -5.5760   -2.4901    0.6330 H       1  UNL1        0.0265
     47 H          -6.5453    0.1676    1.8175 H       1  UNL1        0.0266
     48 H          -6.3314   -1.4446    2.6654 H       1  UNL1        0.0266
     49 H          -4.3101   -0.1400    3.0294 H       1  UNL1        0.0283
     50 H          -4.0196   -1.5623    2.0102 H       1  UNL1        0.0283
@<TRIPOS>BOND
     1     1     2    1
     2     2     3    1
     3     2     4    2
     4     4     5    1
     5     5     6    1
     6     6     7    1
     7     7     8    1
     8     7     9    2
     9     9    10    1
    10    10    11    1
    11    11    12   am
    12    12    13    2
    13    12    14   am
    14    14    15    1
    15    15    16    1
    16    16    17    1
    17    17    18    1
    18    18    19    1
    19    19    20    1
    20    20    15    1
    21     1    21    1
    22     1    22    1
    23     1    23    1
    24     3    24    1
    25     3    25    1
    26     3    26    1
    27     4    27    1
    28     5    28    1
    29     5    29    1
    30     6    30    1
    31     6    31    1
    32     8    32    1
    33     8    33    1
    34     8    34    1
    35     9    35    1
    36    10    36    1
    37    10    37    1
    38    11    38    1
    39    14    39    1
    40    15    40    1
    41    16    41    1
    42    16    42    1
    43    17    43    1
    44    17    44    1
    45    18    45    1
    46    18    46    1
    47    19    47    1
    48    19    48    1
    49    20    49    1
    50    20    50    1
@<TRIPOS>MOLECULE
50254015
 47 47 0 0 0
SMALL
GASTEIGER

@<TRIPOS>ATOM
      1 C          -6.1474   -0.1973   -1.0888 C.3     1  UNL1       -0.0440
      2 C          -5.3724    0.7202   -0.2220 C.2     1  UNL1       -0.0796
      3 C          -6.0203    1.9195    0.3581 C.3     1  UNL1       -0.0440
      4 C          -4.0720    0.4385    0.0239 C.2     1  UNL1       -0.0850
      5 C          -3.4391   -0.7582   -0.5597 C.3     1  UNL1       -0.0308
      6 C          -2.8571   -1.7282    0.3938 C.3     1  UNL1       -0.0285
      7 C          -1.7021   -1.2893    1.2001 C.2     1  UNL1       -0.0731
      8 C          -1.1927   -2.2367    2.2231 C.3     1  UNL1       -0.0437
      9 C          -1.0869   -0.1239    1.1071 C.2     1  UNL1       -0.0480
     10 C           0.0475    0.1541    1.9882 C.3     1  UNL1        0.1113
     11 O           1.2636    0.4265    1.3352 O.3     1  UNL1       -0.4570
     12 C           1.9432   -0.3856    0.4701 C.2     1  UNL1        0.3395
     13 O           1.4494   -1.5096    0.2073 O.2     1  UNL1       -0.2450
     14 C           3.2226    0.0205   -0.1521 C.ar    1  UNL1        0.0601
     15 C           3.7741    1.2503    0.1280 C.ar    1  UNL1       -0.0361
     16 C           4.9630    1.6530   -0.4370 C.ar    1  UNL1        0.0561
     17 C           5.4698    3.0025   -0.0655 C.3     1  UNL1        0.4175
     18 F           6.2420    3.5486   -1.0817 F       1  UNL1       -0.1659
     19 F           6.1582    2.8842    1.1076 F       1  UNL1       -0.1659
     20 F           4.3599    3.8266    0.0702 F       1  UNL1       -0.1659
     21 C           5.6163    0.8139   -1.2989 C.ar    1  UNL1       -0.0384
     22 C           5.0908   -0.4261   -1.6013 C.ar    1  UNL1        0.0561
     23 C           5.8239   -1.3170   -2.5420 C.3     1  UNL1        0.4175
     24 F           7.1655   -1.3647   -2.1392 F       1  UNL1       -0.1659
     25 F           5.3644   -2.6141   -2.4705 F       1  UNL1       -0.1659
     26 F           5.8066   -0.8132   -3.8209 F       1  UNL1       -0.1659
     27 C           3.8912   -0.8088   -1.0189 C.ar    1  UNL1       -0.0361
     28 H          -5.7169   -0.3009   -2.1104 H       1  UNL1        0.0274
     29 H          -7.2044    0.1418   -1.1434 H       1  UNL1        0.0274
     30 H          -6.1812   -1.2073   -0.6321 H       1  UNL1        0.0274
     31 H          -5.8304    2.8238   -0.2524 H       1  UNL1        0.0274
     32 H          -7.0928    1.7793    0.5365 H       1  UNL1        0.0274
     33 H          -5.5381    2.0952    1.3481 H       1  UNL1        0.0274
     34 H          -3.5341    1.1073    0.6571 H       1  UNL1        0.0572
     35 H          -4.2185   -1.3094   -1.1677 H       1  UNL1        0.0310
     36 H          -2.6852   -0.4530   -1.3484 H       1  UNL1        0.0310
     37 H          -2.5624   -2.6423   -0.2127 H       1  UNL1        0.0313
     38 H          -3.6677   -2.0248    1.1023 H       1  UNL1        0.0313
     39 H          -1.4743   -1.8806    3.2581 H       1  UNL1        0.0274
     40 H          -1.7381   -3.1914    2.1087 H       1  UNL1        0.0274
     41 H          -0.1381   -2.4663    2.1861 H       1  UNL1        0.0274
     42 H          -1.3823    0.6187    0.3809 H       1  UNL1        0.0605
     43 H          -0.2105    1.1255    2.5172 H       1  UNL1        0.0743
     44 H           0.1623   -0.5623    2.8246 H       1  UNL1        0.0743
     45 H           3.2194    1.8960    0.8251 H       1  UNL1        0.0631
     46 H           6.5647    1.1593   -1.7371 H       1  UNL1        0.0629
     47 H           3.4668   -1.7942   -1.2547 H       1  UNL1        0.0631
@<TRIPOS>BOND
     1     1     2    1
     2     2     3    1
     3     2     4    2
     4     4     5    1
     5     5     6    1
     6     6     7    1
     7     7     8    1
     8     7     9    2
     9     9    10    1
    10    10    11    1
    11    11    12    1
    12    12    13    2
    13    12    14    1
    14    14    15   ar
    15    15    16   ar
    16    16    17    1
    17    17    18    1
    18    17    19    1
    19    17    20    1
    20    16    21   ar
    21    21    22   ar
    22    22    23    1
    23    23    24    1
    24    23    25    1
    25    23    26    1
    26    22    27   ar
    27    27    14   ar
    28     1    28    1
    29     1    29    1
    30     1    30    1
    31     3    31    1
    32     3    32    1
    33     3    33    1
    34     4    34    1
    35     5    35    1
    36     5    36    1
    37     6    37    1
    38     6    38    1
    39     8    39    1
    40     8    40    1
    41     8    41    1
    42     9    42    1
    43    10    43    1
    44    10    44    1
    45    15    45    1
    46    21    46    1
    47    27    47    1
@<TRIPOS>MOLECULE
50254014
 42 42 0 0 0
SMALL
GASTEIGER

@<TRIPOS>ATOM
      1 C          -5.4026   -1.0261    4.1124 C.3     1  UNL1       -0.0440
      2 C          -3.9947   -1.1190    3.6680 C.2     1  UNL1       -0.0796
      3 C          -3.0213   -1.8389    4.5166 C.3     1  UNL1       -0.0440
      4 C          -3.6146   -0.5633    2.5208 C.2     1  UNL1       -0.0850
      5 C          -2.1986   -0.6514    2.0705 C.3     1  UNL1       -0.0308
      6 C          -1.6628    0.7441    1.9378 C.3     1  UNL1       -0.0285
      7 C          -0.2243    0.7380    1.5137 C.2     1  UNL1       -0.0731
      8 C           0.7941    0.0810    2.3676 C.3     1  UNL1       -0.0437
      9 C           0.2042    1.2991    0.3906 C.2     1  UNL1       -0.0480
     10 C           1.6556    1.2896   -0.0300 C.3     1  UNL1        0.1113
     11 O           1.9577    0.7335   -1.1311 O.3     1  UNL1       -0.4570
     12 C           2.1678   -0.0504   -2.1598 C.2     1  UNL1        0.3395
     13 O           1.7388   -1.2710   -1.8951 O.2     1  UNL1       -0.2450
     14 C           2.7591    0.1874   -3.4662 C.ar    1  UNL1        0.0591
     15 C           2.8603   -0.8490   -4.3873 C.ar    1  UNL1       -0.0466
     16 C           3.4058   -0.6207   -5.6511 C.ar    1  UNL1       -0.0436
     17 C           3.8619    0.6169   -6.0458 C.ar    1  UNL1        0.0518
     18 C           4.4007    0.8404   -7.3456 C.1     1  UNL1        0.0992
     19 N           4.8198    1.0040   -8.3874 N.1     1  UNL1       -0.1909
     20 C           3.7571    1.6320   -5.1257 C.ar    1  UNL1       -0.0436
     21 C           3.2253    1.4241   -3.8836 C.ar    1  UNL1       -0.0466
     22 H          -6.0928   -1.2539    3.2973 H       1  UNL1        0.0274
     23 H          -5.5670   -0.0062    4.5309 H       1  UNL1        0.0274
     24 H          -5.5820   -1.7149    4.9480 H       1  UNL1        0.0274
     25 H          -2.6548   -2.7864    4.0822 H       1  UNL1        0.0274
     26 H          -3.4399   -2.0410    5.5411 H       1  UNL1        0.0274
     27 H          -2.1601   -1.1394    4.7336 H       1  UNL1        0.0274
     28 H          -4.2878   -0.0244    1.8657 H       1  UNL1        0.0572
     29 H          -2.1333   -1.2168    1.0933 H       1  UNL1        0.0310
     30 H          -1.6462   -1.2788    2.7775 H       1  UNL1        0.0310
     31 H          -1.7011    1.2116    2.9597 H       1  UNL1        0.0313
     32 H          -2.2617    1.3422    1.2650 H       1  UNL1        0.0313
     33 H           1.3847   -0.6186    1.7351 H       1  UNL1        0.0274
     34 H           1.4060    0.7748    2.9735 H       1  UNL1        0.0274
     35 H           0.2725   -0.5789    3.1261 H       1  UNL1        0.0274
     36 H          -0.4925    1.7909   -0.2721 H       1  UNL1        0.0605
     37 H           1.9196    2.4095   -0.0006 H       1  UNL1        0.0743
     38 H           2.2767    0.9232    0.8447 H       1  UNL1        0.0743
     39 H           2.5153   -1.8102   -4.1091 H       1  UNL1        0.0626
     40 H           3.4840   -1.4383   -6.3710 H       1  UNL1        0.0631
     41 H           4.1233    2.6240   -5.4450 H       1  UNL1        0.0631
     42 H           3.1479    2.2311   -3.1651 H       1  UNL1        0.0626
@<TRIPOS>BOND
     1     1     2    1
     2     2     3    1
     3     2     4    2
     4     4     5    1
     5     5     6    1
     6     6     7    1
     7     7     8    1
     8     7     9    2
     9     9    10    1
    10    10    11    1
    11    11    12    1
    12    12    13    2
    13    12    14    1
    14    14    15   ar
    15    15    16   ar
    16    16    17   ar
    17    17    18    1
    18    18    19    3
    19    17    20   ar
    20    20    21   ar
    21    21    14   ar
    22     1    22    1
    23     1    23    1
    24     1    24    1
    25     3    25    1
    26     3    26    1
    27     3    27    1
    28     4    28    1
    29     5    29    1
    30     5    30    1
    31     6    31    1
    32     6    32    1
    33     8    33    1
    34     8    34    1
    35     8    35    1
    36     9    36    1
    37    10    37    1
    38    10    38    1
    39    15    39    1
    40    16    40    1
    41    20    41    1
    42    21    42    1
@<TRIPOS>MOLECULE
50254158
 44 44 0 0 0
SMALL
GASTEIGER

@<TRIPOS>ATOM
      1 C          -5.4918    0.5542   -1.7242 C.3     1  UNL1       -0.0440
      2 C          -5.0006   -0.0859   -0.4717 C.2     1  UNL1       -0.0796
      3 C          -5.3862    0.5305    0.8255 C.3     1  UNL1       -0.0440
      4 C          -4.2540   -1.1619   -0.4988 C.2     1  UNL1       -0.0850
      5 C          -3.7115   -1.8795    0.6728 C.3     1  UNL1       -0.0308
      6 C          -2.2053   -1.9169    0.5883 C.3     1  UNL1       -0.0285
      7 C          -1.5701   -0.5815    0.5667 C.2     1  UNL1       -0.0731
      8 C          -1.7574    0.3777    1.7150 C.3     1  UNL1       -0.0437
      9 C          -0.8315   -0.2515   -0.4877 C.2     1  UNL1       -0.0480
     10 C          -0.1683    1.0548   -0.5838 C.3     1  UNL1        0.1113
     11 O           1.2346    0.9804   -0.6954 O.3     1  UNL1       -0.4570
     12 C           2.0899    0.4170    0.2103 C.2     1  UNL1        0.3395
     13 O           1.5983   -0.0897    1.2506 O.2     1  UNL1       -0.2450
     14 C           3.5485    0.3825    0.0141 C.ar    1  UNL1        0.0590
     15 C           4.3556   -0.1958    0.9561 C.ar    1  UNL1       -0.0475
     16 C           5.7445   -0.2421    0.7945 C.ar    1  UNL1       -0.0581
     17 C           6.3274    0.2996   -0.3277 C.ar    1  UNL1       -0.0504
     18 C           7.7986    0.2776   -0.5497 C.3     1  UNL1       -0.0397
     19 C           5.5179    0.8852   -1.2830 C.ar    1  UNL1       -0.0581
     20 C           4.1470    0.9193   -1.1017 C.ar    1  UNL1       -0.0475
     21 H          -6.5543    0.8768   -1.5637 H       1  UNL1        0.0274
     22 H          -4.9250    1.4491   -1.9970 H       1  UNL1        0.0274
     23 H          -5.4733   -0.1500   -2.5624 H       1  UNL1        0.0274
     24 H          -5.6355   -0.2453    1.5802 H       1  UNL1        0.0274
     25 H          -6.2403    1.2360    0.6806 H       1  UNL1        0.0274
     26 H          -4.5074    1.0938    1.1977 H       1  UNL1        0.0274
     27 H          -3.9931   -1.5903   -1.4760 H       1  UNL1        0.0572
     28 H          -4.0889   -1.5585    1.6401 H       1  UNL1        0.0310
     29 H          -4.0385   -2.9546    0.5546 H       1  UNL1        0.0310
     30 H          -1.7714   -2.5485    1.4075 H       1  UNL1        0.0313
     31 H          -1.9444   -2.4449   -0.3477 H       1  UNL1        0.0313
     32 H          -0.8593    0.4797    2.3333 H       1  UNL1        0.0274
     33 H          -2.6006    0.0080    2.3619 H       1  UNL1        0.0274
     34 H          -2.0879    1.3736    1.3621 H       1  UNL1        0.0274
     35 H          -0.7078   -0.9551   -1.3034 H       1  UNL1        0.0605
     36 H          -0.5168    1.5880   -1.5173 H       1  UNL1        0.0743
     37 H          -0.4247    1.7372    0.2443 H       1  UNL1        0.0743
     38 H           3.9444   -0.6315    1.8485 H       1  UNL1        0.0626
     39 H           6.3863   -0.6978    1.5360 H       1  UNL1        0.0620
     40 H           8.1745   -0.7131   -0.8391 H       1  UNL1        0.0278
     41 H           8.2793    0.6685    0.3861 H       1  UNL1        0.0278
     42 H           8.0647    0.9998   -1.3452 H       1  UNL1        0.0278
     43 H           5.9835    1.3188   -2.1811 H       1  UNL1        0.0620
     44 H           3.5509    1.3861   -1.8721 H       1  UNL1        0.0626
@<TRIPOS>BOND
     1     1     2    1
     2     2     3    1
     3     2     4    2
     4     4     5    1
     5     5     6    1
     6     6     7    1
     7     7     8    1
     8     7     9    2
     9     9    10    1
    10    10    11    1
    11    11    12    1
    12    12    13    2
    13    12    14    1
    14    14    15   ar
    15    15    16   ar
    16    16    17   ar
    17    17    18    1
    18    17    19   ar
    19    19    20   ar
    20    20    14   ar
    21     1    21    1
    22     1    22    1
    23     1    23    1
    24     3    24    1
    25     3    25    1
    26     3    26    1
    27     4    27    1
    28     5    28    1
    29     5    29    1
    30     6    30    1
    31     6    31    1
    32     8    32    1
    33     8    33    1
    34     8    34    1
    35     9    35    1
    36    10    36    1
    37    10    37    1
    38    15    38    1
    39    16    39    1
    40    18    40    1
    41    18    41    1
    42    18    42    1
    43    19    43    1
    44    20    44    1
@<TRIPOS>MOLECULE
50254013
 44 44 0 0 0
SMALL
GASTEIGER

@<TRIPOS>ATOM
      1 C          -5.3761   -1.3823    0.3980 C.3     1  UNL1       -0.0440
      2 C          -5.6643    0.0232    0.0331 C.2     1  UNL1       -0.0796
      3 C          -7.0498    0.3858   -0.3734 C.3     1  UNL1       -0.0440
      4 C          -4.7093    0.9261    0.0703 C.2     1  UNL1       -0.0850
      5 C          -3.3263    0.5271    0.4839 C.3     1  UNL1       -0.0308
      6 C          -2.3185    0.7799   -0.5685 C.3     1  UNL1       -0.0285
      7 C          -0.9491    0.3619   -0.0645 C.2     1  UNL1       -0.0731
      8 C           0.2095    0.4547   -1.0214 C.3     1  UNL1       -0.0437
      9 C          -0.7488   -0.1267    1.1173 C.2     1  UNL1       -0.0480
     10 C           0.4560   -0.5616    1.7557 C.3     1  UNL1        0.1113
     11 O           1.6994   -0.5105    1.1990 O.3     1  UNL1       -0.4570
     12 C           2.4976    0.5946    0.9424 C.2     1  UNL1        0.3395
     13 O           2.0410    1.7185    1.2679 O.2     1  UNL1       -0.2450
     14 C           3.8129    0.4919    0.3238 C.ar    1  UNL1        0.0593
     15 C           4.5574    1.6290    0.0952 C.ar    1  UNL1       -0.0478
     16 C           5.8115    1.5472   -0.4929 C.ar    1  UNL1       -0.0607
     17 C           6.3530    0.3312   -0.8669 C.ar    1  UNL1       -0.0588
     18 C           5.6146   -0.8158   -0.6421 C.ar    1  UNL1       -0.0497
     19 C           6.1475   -2.1700   -1.0262 C.3     1  UNL1       -0.0397
     20 C           4.3693   -0.7108   -0.0557 C.ar    1  UNL1       -0.0448
     21 H          -4.5967   -1.8448   -0.2655 H       1  UNL1        0.0274
     22 H          -5.0111   -1.4813    1.4420 H       1  UNL1        0.0274
     23 H          -6.2773   -2.0208    0.2985 H       1  UNL1        0.0274
     24 H          -7.0822    0.4907   -1.4935 H       1  UNL1        0.0274
     25 H          -7.3291    1.3771    0.0615 H       1  UNL1        0.0274
     26 H          -7.7525   -0.3727   -0.0183 H       1  UNL1        0.0274
     27 H          -4.9356    1.9508   -0.1995 H       1  UNL1        0.0572
     28 H          -3.0884    1.1292    1.3790 H       1  UNL1        0.0310
     29 H          -3.3207   -0.5587    0.7433 H       1  UNL1        0.0310
     30 H          -2.4808    0.2644   -1.5130 H       1  UNL1        0.0313
     31 H          -2.2315    1.8880   -0.7284 H       1  UNL1        0.0313
     32 H           0.8487   -0.4276   -1.0211 H       1  UNL1        0.0274
     33 H           0.6601    1.4366   -1.0330 H       1  UNL1        0.0274
     34 H          -0.2869    0.3894   -2.0619 H       1  UNL1        0.0274
     35 H          -1.6813   -0.2247    1.7564 H       1  UNL1        0.0605
     36 H           0.3138   -1.6702    2.0674 H       1  UNL1        0.0743
     37 H           0.4660   -0.0846    2.8164 H       1  UNL1        0.0743
     38 H           4.1355    2.6029    0.3893 H       1  UNL1        0.0626
     39 H           6.4008    2.4317   -0.6754 H       1  UNL1        0.0618
     40 H           7.3295    0.2311   -1.3286 H       1  UNL1        0.0620
     41 H           7.2391   -2.1122   -1.0612 H       1  UNL1        0.0278
     42 H           5.7232   -2.4266   -2.0162 H       1  UNL1        0.0278
     43 H           5.7603   -2.8657   -0.2431 H       1  UNL1        0.0278
     44 H           3.7698   -1.5952    0.1315 H       1  UNL1        0.0628
@<TRIPOS>BOND
     1     1     2    1
     2     2     3    1
     3     2     4    2
     4     4     5    1
     5     5     6    1
     6     6     7    1
     7     7     8    1
     8     7     9    2
     9     9    10    1
    10    10    11    1
    11    11    12    1
    12    12    13    2
    13    12    14    1
    14    14    15   ar
    15    15    16   ar
    16    16    17   ar
    17    17    18   ar
    18    18    19    1
    19    18    20   ar
    20    20    14   ar
    21     1    21    1
    22     1    22    1
    23     1    23    1
    24     3    24    1
    25     3    25    1
    26     3    26    1
    27     4    27    1
    28     5    28    1
    29     5    29    1
    30     6    30    1
    31     6    31    1
    32     8    32    1
    33     8    33    1
    34     8    34    1
    35     9    35    1
    36    10    36    1
    37    10    37    1
    38    15    38    1
    39    16    39    1
    40    17    40    1
    41    19    41    1
    42    19    42    1
    43    19    43    1
    44    20    44    1
@<TRIPOS>MOLECULE
50254017
 44 44 0 0 0
SMALL
GASTEIGER

@<TRIPOS>ATOM
      1 C          -5.1626    1.7524    0.3527 C.3     1  UNL1       -0.0440
      2 C          -5.5297    0.3543    0.7005 C.2     1  UNL1       -0.0796
      3 C          -6.7304    0.0423    1.5176 C.3     1  UNL1       -0.0440
      4 C          -4.7681   -0.6262    0.2746 C.2     1  UNL1       -0.0850
      5 C          -3.5660   -0.3425   -0.5377 C.3     1  UNL1       -0.0308
      6 C          -2.3203   -0.8513    0.1467 C.3     1  UNL1       -0.0285
      7 C          -1.1075   -0.5562   -0.6755 C.2     1  UNL1       -0.0731
      8 C          -1.0116   -1.1043   -2.0515 C.3     1  UNL1       -0.0437
      9 C          -0.1339    0.2009   -0.1857 C.2     1  UNL1       -0.0480
     10 C           1.0825    0.5296   -0.9356 C.3     1  UNL1        0.1109
     11 O           2.2858    0.1128   -0.3370 O.3     1  UNL1       -0.4602
     12 C           2.5710   -1.2076   -0.0590 C.2     1  UNL1        0.3117
     13 O           1.7135   -2.0741   -0.3568 O.2     1  UNL1       -0.2505
     14 C           3.8687   -1.6113    0.5813 C.3     1  UNL1        0.0701
     15 C           4.8458   -0.4678    0.4458 C.ar    1  UNL1       -0.0367
     16 C           5.6408   -0.3790   -0.6747 C.ar    1  UNL1       -0.0567
     17 C           6.5179    0.6903   -0.7523 C.ar    1  UNL1       -0.0431
     18 C           6.6292    1.6545    0.2265 C.ar    1  UNL1        0.0410
     19 CL          7.7523    3.0064    0.1042 Cl      1  UNL1       -0.0835
     20 C           5.8143    1.5313    1.3371 C.ar    1  UNL1       -0.0431
     21 C           4.9289    0.4827    1.4523 C.ar    1  UNL1       -0.0567
     22 H          -5.8393    2.4882    0.8398 H       1  UNL1        0.0274
     23 H          -4.1487    1.9678    0.7694 H       1  UNL1        0.0274
     24 H          -5.1380    1.9082   -0.7432 H       1  UNL1        0.0274
     25 H          -7.4383    0.8849    1.5625 H       1  UNL1        0.0274
     26 H          -6.3679   -0.1841    2.5502 H       1  UNL1        0.0274
     27 H          -7.2008   -0.9013    1.1633 H       1  UNL1        0.0274
     28 H          -5.0231   -1.6428    0.5209 H       1  UNL1        0.0572
     29 H          -3.4599    0.7501   -0.7157 H       1  UNL1        0.0310
     30 H          -3.7322   -0.7955   -1.5330 H       1  UNL1        0.0310
     31 H          -2.4327   -1.9545    0.2502 H       1  UNL1        0.0313
     32 H          -2.2127   -0.3782    1.1191 H       1  UNL1        0.0313
     33 H          -0.3099   -1.9503   -2.1547 H       1  UNL1        0.0274
     34 H          -0.7266   -0.3206   -2.7900 H       1  UNL1        0.0274
     35 H          -2.0128   -1.4767   -2.3824 H       1  UNL1        0.0274
     36 H          -0.2637    0.5972    0.8453 H       1  UNL1        0.0605
     37 H           1.0862    1.6543   -1.0492 H       1  UNL1        0.0743
     38 H           1.0595    0.1537   -1.9840 H       1  UNL1        0.0743
     39 H           4.2803   -2.5152    0.1414 H       1  UNL1        0.0426
     40 H           3.6756   -1.7335    1.6436 H       1  UNL1        0.0426
     41 H           5.5874   -1.1259   -1.4814 H       1  UNL1        0.0621
     42 H           7.1508    0.7862   -1.6166 H       1  UNL1        0.0632
     43 H           5.8622    2.2683    2.1473 H       1  UNL1        0.0632
     44 H           4.2841    0.3825    2.3251 H       1  UNL1        0.0621
@<TRIPOS>BOND
     1     1     2    1
     2     2     3    1
     3     2     4    2
     4     4     5    1
     5     5     6    1
     6     6     7    1
     7     7     8    1
     8     7     9    2
     9     9    10    1
    10    10    11    1
    11    11    12    1
    12    12    13    2
    13    12    14    1
    14    14    15    1
    15    15    16   ar
    16    16    17   ar
    17    17    18   ar
    18    18    19    1
    19    18    20   ar
    20    20    21   ar
    21    21    15   ar
    22     1    22    1
    23     1    23    1
    24     1    24    1
    25     3    25    1
    26     3    26    1
    27     3    27    1
    28     4    28    1
    29     5    29    1
    30     5    30    1
    31     6    31    1
    32     6    32    1
    33     8    33    1
    34     8    34    1
    35     8    35    1
    36     9    36    1
    37    10    37    1
    38    10    38    1
    39    14    39    1
    40    14    40    1
    41    16    41    1
    42    17    42    1
    43    20    43    1
    44    21    44    1
@<TRIPOS>MOLECULE
50254019
 47 47 0 0 0
SMALL
GASTEIGER

@<TRIPOS>ATOM
      1 C           5.3371    0.8794   -0.1612 C.3     1  UNL1       -0.0440
      2 C           4.2555    1.6537    0.4833 C.2     1  UNL1       -0.0796
      3 C           4.3745    2.1376    1.8979 C.3     1  UNL1       -0.0440
      4 C           3.1585    1.9305   -0.1902 C.2     1  UNL1       -0.0850
      5 C           2.9968    1.4747   -1.5814 C.3     1  UNL1       -0.0308
      6 C           1.7416    0.6420   -1.6866 C.3     1  UNL1       -0.0285
      7 C           1.7091   -0.5528   -0.8559 C.2     1  UNL1       -0.0731
      8 C           2.6706   -1.6886   -0.9511 C.3     1  UNL1       -0.0437
      9 C           0.7434   -0.6646    0.0665 C.2     1  UNL1       -0.0480
     10 C           0.6127   -1.8217    0.9579 C.3     1  UNL1        0.1109
     11 O          -0.6137   -2.5017    0.8249 O.3     1  UNL1       -0.4605
     12 C          -1.8093   -1.8349    1.0965 C.2     1  UNL1        0.3077
     13 O          -1.7136   -0.6403    1.4540 O.2     1  UNL1       -0.2508
     14 C          -3.1192   -2.5012    0.9697 C.3     1  UNL1        0.0489
     15 C          -4.3204   -1.6971    1.2659 C.3     1  UNL1       -0.0176
     16 C          -4.5367   -0.5024    0.4262 C.ar    1  UNL1       -0.0468
     17 C          -4.1943    0.7754    0.7913 C.ar    1  UNL1       -0.0586
     18 C          -4.3971    1.8713   -0.0505 C.ar    1  UNL1       -0.0615
     19 C          -4.9575    1.7133   -1.2987 C.ar    1  UNL1       -0.0617
     20 C          -5.2988    0.4295   -1.6568 C.ar    1  UNL1       -0.0615
     21 C          -5.1062   -0.6534   -0.8442 C.ar    1  UNL1       -0.0586
     22 H           6.2091    0.8318    0.5265 H       1  UNL1        0.0274
     23 H           5.6099    1.4043   -1.1122 H       1  UNL1        0.0274
     24 H           5.0118   -0.1459   -0.3387 H       1  UNL1        0.0274
     25 H           3.5971    1.5991    2.4780 H       1  UNL1        0.0274
     26 H           4.1240    3.2241    1.9018 H       1  UNL1        0.0274
     27 H           5.3596    1.9241    2.3209 H       1  UNL1        0.0274
     28 H           2.3682    2.5065    0.3041 H       1  UNL1        0.0572
     29 H           3.8360    0.8962   -1.9580 H       1  UNL1        0.0310
     30 H           2.8215    2.3833   -2.2056 H       1  UNL1        0.0310
     31 H           0.8678    1.2811   -1.4541 H       1  UNL1        0.0313
     32 H           1.5763    0.3175   -2.7527 H       1  UNL1        0.0313
     33 H           2.1316   -2.6534   -1.1317 H       1  UNL1        0.0274
     34 H           3.2515   -1.7806   -0.0254 H       1  UNL1        0.0274
     35 H           3.3720   -1.5598   -1.7995 H       1  UNL1        0.0274
     36 H           0.0241    0.1379    0.1614 H       1  UNL1        0.0605
     37 H           1.4743   -2.5202    0.9106 H       1  UNL1        0.0743
     38 H           0.6574   -1.4110    2.0115 H       1  UNL1        0.0743
     39 H          -3.0739   -3.4540    1.5603 H       1  UNL1        0.0381
     40 H          -3.1871   -2.7983   -0.1275 H       1  UNL1        0.0381
     41 H          -4.2067   -1.3162    2.3237 H       1  UNL1        0.0318
     42 H          -5.2076   -2.3861    1.2255 H       1  UNL1        0.0318
     43 H          -3.7646    0.9817    1.7727 H       1  UNL1        0.0620
     44 H          -4.1114    2.8785    0.2721 H       1  UNL1        0.0618
     45 H          -5.1287    2.5355   -1.9747 H       1  UNL1        0.0618
     46 H          -5.7440    0.3043   -2.6476 H       1  UNL1        0.0618
     47 H          -5.4014   -1.6291   -1.1996 H       1  UNL1        0.0620
@<TRIPOS>BOND
     1     1     2    1
     2     2     3    1
     3     2     4    2
     4     4     5    1
     5     5     6    1
     6     6     7    1
     7     7     8    1
     8     7     9    2
     9     9    10    1
    10    10    11    1
    11    11    12    1
    12    12    13    2
    13    12    14    1
    14    14    15    1
    15    15    16    1
    16    16    17   ar
    17    17    18   ar
    18    18    19   ar
    19    19    20   ar
    20    20    21   ar
    21    21    16   ar
    22     1    22    1
    23     1    23    1
    24     1    24    1
    25     3    25    1
    26     3    26    1
    27     3    27    1
    28     4    28    1
    29     5    29    1
    30     5    30    1
    31     6    31    1
    32     6    32    1
    33     8    33    1
    34     8    34    1
    35     8    35    1
    36     9    36    1
    37    10    37    1
    38    10    38    1
    39    14    39    1
    40    14    40    1
    41    15    41    1
    42    15    42    1
    43    17    43    1
    44    18    44    1
    45    19    45    1
    46    20    46    1
    47    21    47    1
@<TRIPOS>MOLECULE
50254072
 55 55 0 0 0
SMALL
GASTEIGER

@<TRIPOS>ATOM
      1 C           5.8875    0.8733   -2.9487 C.3     1  UNL1       -0.0440
      2 C           6.0341    0.3803   -1.5284 C.2     1  UNL1       -0.0796
      3 C           6.5449   -1.0036   -1.3810 C.3     1  UNL1       -0.0440
      4 C           5.7409    1.1227   -0.5086 C.2     1  UNL1       -0.0850
      5 C           5.8539    0.7196    0.9023 C.3     1  UNL1       -0.0308
      6 C           4.5402    0.8398    1.6451 C.3     1  UNL1       -0.0285
      7 C           3.4959   -0.0221    1.0417 C.2     1  UNL1       -0.0748
      8 C           3.7190   -1.5034    1.0173 C.3     1  UNL1       -0.0437
      9 C           2.3621    0.4214    0.5265 C.2     1  UNL1       -0.0680
     10 C           1.9774    1.8363    0.4787 C.3     1  UNL1        0.0333
     11 N           0.7337    2.0716    1.2219 N.am    1  UNL1       -0.2772
     12 C          -0.4446    1.3971    0.8233 C.2     1  UNL1        0.4058
     13 O          -0.4438    0.6119   -0.1419 O.2     1  UNL1       -0.2260
     14 O          -1.6644    1.5752    1.4875 O.3     1  UNL1       -0.4115
     15 C          -2.7959    0.8924    1.0616 C.ar    1  UNL1        0.1333
     16 C          -3.6279    1.4431    0.1224 C.ar    1  UNL1       -0.0189
     17 C          -4.7729    0.7781   -0.3240 C.ar    1  UNL1       -0.0546
     18 C          -5.0715   -0.4647    0.1956 C.ar    1  UNL1       -0.0418
     19 C          -6.3039   -1.1244   -0.3181 C.3     1  UNL1       -0.0127
     20 C          -6.5333   -2.4669    0.3119 C.3     1  UNL1       -0.0560
     21 C          -7.4668   -0.2132    0.0279 C.3     1  UNL1       -0.0560
     22 C          -6.1603   -1.2911   -1.8004 C.3     1  UNL1       -0.0560
     23 C          -4.2551   -1.0359    1.1356 C.ar    1  UNL1       -0.0546
     24 C          -3.1174   -0.3454    1.5615 C.ar    1  UNL1       -0.0189
     25 H           5.0715    1.6183   -3.0231 H       1  UNL1        0.0274
     26 H           5.6961    0.0268   -3.6400 H       1  UNL1        0.0274
     27 H           6.8176    1.3933   -3.2501 H       1  UNL1        0.0274
     28 H           5.6969   -1.6422   -1.0667 H       1  UNL1        0.0274
     29 H           7.3079   -1.0201   -0.5581 H       1  UNL1        0.0274
     30 H           7.0108   -1.3830   -2.3210 H       1  UNL1        0.0274
     31 H           5.3750    2.1453   -0.7159 H       1  UNL1        0.0572
     32 H           6.3251   -0.2527    1.0233 H       1  UNL1        0.0310
     33 H           6.5401    1.4718    1.3915 H       1  UNL1        0.0310
     34 H           4.7089    0.3909    2.6796 H       1  UNL1        0.0313
     35 H           4.2492    1.8846    1.8008 H       1  UNL1        0.0313
     36 H           3.3394   -1.9633    0.0865 H       1  UNL1        0.0274
     37 H           4.8032   -1.6753    1.1531 H       1  UNL1        0.0274
     38 H           3.2117   -2.0065    1.8650 H       1  UNL1        0.0274
     39 H           1.6766   -0.3382    0.1114 H       1  UNL1        0.0587
     40 H           1.7665    2.0545   -0.6195 H       1  UNL1        0.0507
     41 H           2.7413    2.5414    0.7670 H       1  UNL1        0.0507
     42 H           0.7027    2.7270    2.0386 H       1  UNL1        0.1523
     43 H          -3.4122    2.4221   -0.3013 H       1  UNL1        0.0654
     44 H          -5.4181    1.2312   -1.0679 H       1  UNL1        0.0622
     45 H          -7.5684   -2.7846    0.0274 H       1  UNL1        0.0238
     46 H          -6.5206   -2.4401    1.4151 H       1  UNL1        0.0238
     47 H          -5.8606   -3.2392   -0.1040 H       1  UNL1        0.0238
     48 H          -7.3374    0.0751    1.1093 H       1  UNL1        0.0238
     49 H          -8.4388   -0.6708   -0.1739 H       1  UNL1        0.0238
     50 H          -7.3244    0.7260   -0.5458 H       1  UNL1        0.0238
     51 H          -6.4297   -2.3238   -2.1019 H       1  UNL1        0.0238
     52 H          -5.1182   -1.0966   -2.1261 H       1  UNL1        0.0238
     53 H          -6.8241   -0.5248   -2.2849 H       1  UNL1        0.0238
     54 H          -4.5084   -2.0042    1.5253 H       1  UNL1        0.0622
     55 H          -2.5114   -0.8350    2.2982 H       1  UNL1        0.0654
@<TRIPOS>BOND
     1     1     2    1
     2     2     3    1
     3     2     4    2
     4     4     5    1
     5     5     6    1
     6     6     7    1
     7     7     8    1
     8     7     9    2
     9     9    10    1
    10    10    11    1
    11    11    12   am
    12    12    13    2
    13    12    14    1
    14    14    15    1
    15    15    16   ar
    16    16    17   ar
    17    17    18   ar
    18    18    19    1
    19    19    20    1
    20    19    21    1
    21    19    22    1
    22    18    23   ar
    23    23    24   ar
    24    24    15   ar
    25     1    25    1
    26     1    26    1
    27     1    27    1
    28     3    28    1
    29     3    29    1
    30     3    30    1
    31     4    31    1
    32     5    32    1
    33     5    33    1
    34     6    34    1
    35     6    35    1
    36     8    36    1
    37     8    37    1
    38     8    38    1
    39     9    39    1
    40    10    40    1
    41    10    41    1
    42    11    42    1
    43    16    43    1
    44    17    44    1
    45    20    45    1
    46    20    46    1
    47    20    47    1
    48    21    48    1
    49    21    49    1
    50    21    50    1
    51    22    51    1
    52    22    52    1
    53    22    53    1
    54    23    54    1
    55    24    55    1
@<TRIPOS>MOLECULE
50254057
 29 28 0 0 0
SMALL
GASTEIGER

@<TRIPOS>ATOM
      1 C           3.8972   -0.9114   -0.9490 C.3     1  UNL1       -0.0440
      2 C           2.5173   -0.4695   -0.4524 C.2     1  UNL1       -0.0796
      3 C           2.4658    0.8775    0.1179 C.3     1  UNL1       -0.0440
      4 C           1.4928   -1.2590   -0.5683 C.2     1  UNL1       -0.0850
      5 C           0.1072   -1.1171   -0.1984 C.3     1  UNL1       -0.0308
      6 C          -0.3506    0.0834    0.5560 C.3     1  UNL1       -0.0285
      7 C          -1.8144   -0.0603    0.7509 C.2     1  UNL1       -0.0741
      8 C          -2.2405   -1.2785    1.5346 C.3     1  UNL1       -0.0437
      9 C          -2.7410    0.7433    0.3214 C.2     1  UNL1       -0.0600
     10 C          -2.4711    1.9557   -0.4494 C.3     1  UNL1        0.0626
     11 O          -3.1153    1.8709   -1.7172 O.3     1  UNL1       -0.3910
     12 H           4.1434   -1.7828   -0.3072 H       1  UNL1        0.0274
     13 H           4.6502   -0.1434   -0.7981 H       1  UNL1        0.0274
     14 H           3.8273   -1.2164   -2.0000 H       1  UNL1        0.0274
     15 H           1.9997    1.5571   -0.6366 H       1  UNL1        0.0274
     16 H           3.5265    1.3082    0.2210 H       1  UNL1        0.0274
     17 H           2.0552    0.9863    1.1177 H       1  UNL1        0.0274
     18 H           1.7718   -2.2539   -1.0627 H       1  UNL1        0.0572
     19 H          -0.1555   -2.0042    0.4742 H       1  UNL1        0.0310
     20 H          -0.6009   -1.2382   -1.0791 H       1  UNL1        0.0310
     21 H          -0.1209    1.0469    0.1468 H       1  UNL1        0.0313
     22 H           0.0882   -0.0409    1.6088 H       1  UNL1        0.0313
     23 H          -3.3235   -1.2105    1.8117 H       1  UNL1        0.0274
     24 H          -2.1272   -2.2007    0.9589 H       1  UNL1        0.0274
     25 H          -1.6385   -1.2568    2.4672 H       1  UNL1        0.0274
     26 H          -3.8123    0.4937    0.5547 H       1  UNL1        0.0594
     27 H          -2.8988    2.8246    0.0994 H       1  UNL1        0.0601
     28 H          -1.4166    2.0741   -0.6784 H       1  UNL1        0.0601
     29 H          -3.7157    2.6217   -1.8455 H       1  UNL1        0.2098
@<TRIPOS>BOND
     1     1     2    1
     2     2     3    1
     3     2     4    2
     4     4     5    1
     5     5     6    1
     6     6     7    1
     7     7     8    1
     8     7     9    2
     9     9    10    1
    10    10    11    1
    11     1    12    1
    12     1    13    1
    13     1    14    1
    14     3    15    1
    15     3    16    1
    16     3    17    1
    17     4    18    1
    18     5    19    1
    19     5    20    1
    20     6    21    1
    21     6    22    1
    22     8    23    1
    23     8    24    1
    24     8    25    1
    25     9    26    1
    26    10    27    1
    27    10    28    1
    28    11    29    1
@<TRIPOS>MOLECULE
50254061
 42 42 0 0 0
SMALL
GASTEIGER

@<TRIPOS>ATOM
      1 C          -5.8488    1.6821    1.9096 C.3     1  UNL1       -0.0440
      2 C          -4.9946    0.4806    1.6542 C.2     1  UNL1       -0.0796
      3 C          -5.1303   -0.7370    2.4788 C.3     1  UNL1       -0.0440
      4 C          -4.1142    0.5436    0.6666 C.2     1  UNL1       -0.0850
      5 C          -3.2585   -0.6280    0.3928 C.3     1  UNL1       -0.0308
      6 C          -1.8002   -0.1719    0.5664 C.3     1  UNL1       -0.0285
      7 C          -0.8711   -1.2786    0.3120 C.2     1  UNL1       -0.0731
      8 C          -0.9852   -2.4915    1.1803 C.3     1  UNL1       -0.0437
      9 C           0.0634   -1.2993   -0.6214 C.2     1  UNL1       -0.0480
     10 C           0.2907   -0.1930   -1.5383 C.3     1  UNL1        0.1113
     11 O           1.5969    0.3609   -1.4558 O.3     1  UNL1       -0.4570
     12 C           2.7426   -0.3405   -1.6899 C.2     1  UNL1        0.3395
     13 O           2.6753   -1.5403   -1.9964 O.2     1  UNL1       -0.2450
     14 C           4.0581    0.2927   -1.5873 C.ar    1  UNL1        0.0591
     15 C           5.2152   -0.4210   -1.8248 C.ar    1  UNL1       -0.0466
     16 C           6.4464    0.1695   -1.7293 C.ar    1  UNL1       -0.0436
     17 C           6.5922    1.4994   -1.3930 C.ar    1  UNL1        0.0518
     18 C           7.9130    2.0941   -1.3006 C.1     1  UNL1        0.0992
     19 N           8.9497    2.5690   -1.2240 N.1     1  UNL1       -0.1909
     20 C           5.4441    2.2255   -1.1528 C.ar    1  UNL1       -0.0436
     21 C           4.2029    1.6224   -1.2510 C.ar    1  UNL1       -0.0466
     22 H          -5.2189    2.5922    1.9572 H       1  UNL1        0.0274
     23 H          -6.3418    1.5800    2.9028 H       1  UNL1        0.0274
     24 H          -6.6505    1.7675    1.1416 H       1  UNL1        0.0274
     25 H          -5.3507   -1.6034    1.8251 H       1  UNL1        0.0274
     26 H          -5.9408   -0.5905    3.1961 H       1  UNL1        0.0274
     27 H          -4.1726   -0.9675    2.9905 H       1  UNL1        0.0274
     28 H          -4.0018    1.4291    0.0519 H       1  UNL1        0.0572
     29 H          -3.3726   -0.9241   -0.6889 H       1  UNL1        0.0310
     30 H          -3.4876   -1.4997    0.9999 H       1  UNL1        0.0310
     31 H          -1.7234    0.0376    1.6781 H       1  UNL1        0.0313
     32 H          -1.6934    0.7289   -0.0095 H       1  UNL1        0.0313
     33 H          -0.2837   -3.2936    0.8814 H       1  UNL1        0.0274
     34 H          -0.7717   -2.1583    2.2232 H       1  UNL1        0.0274
     35 H          -1.9914   -2.9255    1.1777 H       1  UNL1        0.0274
     36 H           0.6813   -2.1847   -0.6978 H       1  UNL1        0.0605
     37 H           0.2624   -0.6444   -2.5817 H       1  UNL1        0.0743
     38 H          -0.3964    0.6552   -1.4791 H       1  UNL1        0.0743
     39 H           5.0920   -1.4770   -2.0915 H       1  UNL1        0.0626
     40 H           7.3297   -0.4248   -1.9234 H       1  UNL1        0.0631
     41 H           5.5458    3.2688   -0.8884 H       1  UNL1        0.0631
     42 H           3.2982    2.1956   -1.0614 H       1  UNL1        0.0626
@<TRIPOS>BOND
     1     1     2    1
     2     2     3    1
     3     2     4    2
     4     4     5    1
     5     5     6    1
     6     6     7    1
     7     7     8    1
     8     7     9    2
     9     9    10    1
    10    10    11    1
    11    11    12    1
    12    12    13    2
    13    12    14    1
    14    14    15   ar
    15    15    16   ar
    16    16    17   ar
    17    17    18    1
    18    18    19    3
    19    17    20   ar
    20    20    21   ar
    21    21    14   ar
    22     1    22    1
    23     1    23    1
    24     1    24    1
    25     3    25    1
    26     3    26    1
    27     3    27    1
    28     4    28    1
    29     5    29    1
    30     5    30    1
    31     6    31    1
    32     6    32    1
    33     8    33    1
    34     8    34    1
    35     8    35    1
    36     9    36    1
    37    10    37    1
    38    10    38    1
    39    15    39    1
    40    16    40    1
    41    20    41    1
    42    21    42    1
@<TRIPOS>MOLECULE
50254066
 50 51 0 0 0
SMALL
GASTEIGER

@<TRIPOS>ATOM
      1 C           5.3425    2.4412   -0.4957 C.3     1  UNL1       -0.0440
      2 C           5.7180    1.0462   -0.1877 C.2     1  UNL1       -0.0796
      3 C           7.0047    0.7881    0.5220 C.3     1  UNL1       -0.0440
      4 C           4.9545    0.0294   -0.5289 C.2     1  UNL1       -0.0850
      5 C           3.6948    0.2541   -1.2315 C.3     1  UNL1       -0.0308
      6 C           2.4418   -0.1501   -0.4824 C.3     1  UNL1       -0.0285
      7 C           2.3317   -1.5411   -0.0979 C.2     1  UNL1       -0.0731
      8 C           3.3338   -2.1278    0.8633 C.3     1  UNL1       -0.0437
      9 C           1.3644   -2.3022   -0.5431 C.2     1  UNL1       -0.0480
     10 C           0.2848   -1.9417   -1.4418 C.3     1  UNL1        0.1109
     11 O          -0.9325   -2.1881   -0.7249 O.3     1  UNL1       -0.4602
     12 C          -1.1863   -1.4616    0.4081 C.2     1  UNL1        0.3117
     13 O          -0.4501   -0.5671    0.8886 O.2     1  UNL1       -0.2505
     14 C          -2.4504   -1.7128    1.1887 C.3     1  UNL1        0.0701
     15 C          -3.3787   -0.5864    0.9970 C.ar    1  UNL1       -0.0362
     16 C          -3.1770    0.6503    1.5430 C.ar    1  UNL1       -0.0575
     17 C          -4.1048    1.6746    1.3207 C.ar    1  UNL1       -0.0538
     18 C          -5.2490    1.4557    0.5421 C.ar    1  UNL1       -0.0179
     19 C          -6.1562    2.4863    0.3353 C.ar    1  UNL1       -0.0540
     20 C          -7.2609    2.1991   -0.4406 C.ar    1  UNL1       -0.0612
     21 C          -7.4821    0.9578   -0.9974 C.ar    1  UNL1       -0.0612
     22 C          -6.5647   -0.0294   -0.7703 C.ar    1  UNL1       -0.0540
     23 C          -5.4385    0.1954   -0.0031 C.ar    1  UNL1       -0.0176
     24 C          -4.5146   -0.7989    0.2263 C.ar    1  UNL1       -0.0503
     25 H           6.0564    3.1484    0.0014 H       1  UNL1        0.0274
     26 H           5.4890    2.6019   -1.6051 H       1  UNL1        0.0274
     27 H           4.3267    2.6929   -0.1987 H       1  UNL1        0.0274
     28 H           7.7457    0.3492   -0.2093 H       1  UNL1        0.0274
     29 H           6.8066    0.0683    1.3514 H       1  UNL1        0.0274
     30 H           7.4051    1.7336    0.9774 H       1  UNL1        0.0274
     31 H           5.3250   -0.9665   -0.2761 H       1  UNL1        0.0572
     32 H           3.6947   -0.2368   -2.2480 H       1  UNL1        0.0310
     33 H           3.5784    1.3427   -1.4502 H       1  UNL1        0.0310
     34 H           2.5012    0.4462    0.4907 H       1  UNL1        0.0313
     35 H           1.6199    0.2920   -1.0729 H       1  UNL1        0.0313
     36 H           4.0450   -2.7979    0.3700 H       1  UNL1        0.0274
     37 H           2.8049   -2.7595    1.6225 H       1  UNL1        0.0274
     38 H           3.7693   -1.2943    1.4336 H       1  UNL1        0.0274
     39 H           1.3639   -3.3568   -0.1958 H       1  UNL1        0.0605
     40 H           0.1965   -0.8998   -1.7615 H       1  UNL1        0.0743
     41 H           0.2428   -2.6669   -2.2909 H       1  UNL1        0.0743
     42 H          -2.1565   -1.7651    2.2712 H       1  UNL1        0.0426
     43 H          -2.9262   -2.6658    0.8709 H       1  UNL1        0.0426
     44 H          -2.3030    0.8802    2.1532 H       1  UNL1        0.0621
     45 H          -3.9747    2.6461    1.7311 H       1  UNL1        0.0624
     46 H          -6.0032    3.4654    0.7600 H       1  UNL1        0.0624
     47 H          -7.9733    3.0021   -0.6103 H       1  UNL1        0.0618
     48 H          -8.3782    0.7812   -1.6049 H       1  UNL1        0.0618
     49 H          -6.6903   -1.0255   -1.1837 H       1  UNL1        0.0624
     50 H          -4.6908   -1.7868   -0.2172 H       1  UNL1        0.0626
@<TRIPOS>BOND
     1     1     2    1
     2     2     3    1
     3     2     4    2
     4     4     5    1
     5     5     6    1
     6     6     7    1
     7     7     8    1
     8     7     9    2
     9     9    10    1
    10    10    11    1
    11    11    12    1
    12    12    13    2
    13    12    14    1
    14    14    15    1
    15    15    16   ar
    16    16    17   ar
    17    17    18   ar
    18    18    19   ar
    19    19    20   ar
    20    20    21   ar
    21    21    22   ar
    22    22    23   ar
    23    23    24   ar
    24    24    15   ar
    25    23    18   ar
    26     1    25    1
    27     1    26    1
    28     1    27    1
    29     3    28    1
    30     3    29    1
    31     3    30    1
    32     4    31    1
    33     5    32    1
    34     5    33    1
    35     6    34    1
    36     6    35    1
    37     8    36    1
    38     8    37    1
    39     8    38    1
    40     9    39    1
    41    10    40    1
    42    10    41    1
    43    14    42    1
    44    14    43    1
    45    16    44    1
    46    17    45    1
    47    19    46    1
    48    20    47    1
    49    21    48    1
    50    22    49    1
    51    24    50    1
@<TRIPOS>MOLECULE
50254065
 44 44 0 0 0
SMALL
GASTEIGER

@<TRIPOS>ATOM
      1 C          -5.6223    1.5582   -0.8889 C.3     1  UNL1       -0.0440
      2 C          -5.3495    0.1804   -0.4227 C.2     1  UNL1       -0.0796
      3 C          -6.4385   -0.8082   -0.1262 C.3     1  UNL1       -0.0440
      4 C          -4.0797   -0.2015   -0.2599 C.2     1  UNL1       -0.0850
      5 C          -2.9802    0.7344   -0.5415 C.3     1  UNL1       -0.0308
      6 C          -2.1384    1.1020    0.6565 C.3     1  UNL1       -0.0285
      7 C          -1.4376    0.0114    1.3146 C.2     1  UNL1       -0.0731
      8 C          -2.1530   -1.1195    1.9869 C.3     1  UNL1       -0.0437
      9 C          -0.1081    0.0034    1.3583 C.2     1  UNL1       -0.0480
     10 C           0.7677    1.0175    0.7879 C.3     1  UNL1        0.1109
     11 O           1.6059    0.3663   -0.1873 O.3     1  UNL1       -0.4602
     12 C           2.5264   -0.6023    0.1249 C.2     1  UNL1        0.3117
     13 O           2.6781   -0.9530    1.3079 O.2     1  UNL1       -0.2505
     14 C           3.3266   -1.2119   -0.9520 C.3     1  UNL1        0.0701
     15 C           4.7062   -0.7102   -0.8484 C.ar    1  UNL1       -0.0358
     16 C           5.0591    0.4465   -1.5524 C.ar    1  UNL1       -0.0580
     17 C           6.3355    0.9509   -1.4831 C.ar    1  UNL1       -0.0605
     18 C           7.2800    0.3288   -0.7230 C.ar    1  UNL1       -0.0486
     19 C           6.9625   -0.8064   -0.0226 C.ar    1  UNL1        0.0136
     20 I           8.3653   -1.8212    1.1764 I       1  UNL1       -0.0438
     21 C           5.6583   -1.3221   -0.0931 C.ar    1  UNL1       -0.0449
     22 H          -6.7096    1.8113   -0.8356 H       1  UNL1        0.0274
     23 H          -5.0857    2.2870   -0.2371 H       1  UNL1        0.0274
     24 H          -5.2354    1.6775   -1.9182 H       1  UNL1        0.0274
     25 H          -7.3095   -0.6049   -0.7712 H       1  UNL1        0.0274
     26 H          -6.7815   -0.7640    0.9067 H       1  UNL1        0.0274
     27 H          -6.0013   -1.8182   -0.3222 H       1  UNL1        0.0274
     28 H          -3.8522   -1.1992    0.0679 H       1  UNL1        0.0572
     29 H          -3.3746    1.6551   -1.0440 H       1  UNL1        0.0310
     30 H          -2.3465    0.2392   -1.3267 H       1  UNL1        0.0310
     31 H          -2.9389    1.4364    1.4291 H       1  UNL1        0.0313
     32 H          -1.5597    1.9771    0.3625 H       1  UNL1        0.0313
     33 H          -1.5863   -1.3719    2.9164 H       1  UNL1        0.0274
     34 H          -2.0869   -2.0225    1.3582 H       1  UNL1        0.0274
     35 H          -3.1719   -0.8757    2.3056 H       1  UNL1        0.0274
     36 H           0.3957   -0.8426    1.8665 H       1  UNL1        0.0605
     37 H           0.3378    1.8575    0.2661 H       1  UNL1        0.0743
     38 H           1.5031    1.4219    1.5477 H       1  UNL1        0.0743
     39 H           2.9124   -0.8921   -1.9477 H       1  UNL1        0.0426
     40 H           3.3201   -2.3202   -0.9035 H       1  UNL1        0.0426
     41 H           4.2701    0.8984   -2.1370 H       1  UNL1        0.0620
     42 H           6.5939    1.8400   -2.0310 H       1  UNL1        0.0618
     43 H           8.3005    0.7041   -0.6461 H       1  UNL1        0.0628
     44 H           5.4419   -2.2376    0.4831 H       1  UNL1        0.0631
@<TRIPOS>BOND
     1     1     2    1
     2     2     3    1
     3     2     4    2
     4     4     5    1
     5     5     6    1
     6     6     7    1
     7     7     8    1
     8     7     9    2
     9     9    10    1
    10    10    11    1
    11    11    12    1
    12    12    13    2
    13    12    14    1
    14    14    15    1
    15    15    16   ar
    16    16    17   ar
    17    17    18   ar
    18    18    19   ar
    19    19    20    1
    20    19    21   ar
    21    21    15   ar
    22     1    22    1
    23     1    23    1
    24     1    24    1
    25     3    25    1
    26     3    26    1
    27     3    27    1
    28     4    28    1
    29     5    29    1
    30     5    30    1
    31     6    31    1
    32     6    32    1
    33     8    33    1
    34     8    34    1
    35     8    35    1
    36     9    36    1
    37    10    37    1
    38    10    38    1
    39    14    39    1
    40    14    40    1
    41    16    41    1
    42    17    42    1
    43    18    43    1
    44    21    44    1
@<TRIPOS>MOLECULE
50254073
 55 55 0 0 0
SMALL
GASTEIGER

@<TRIPOS>ATOM
      1 C           5.5816   -2.3869   -2.4030 C.3     1  UNL1       -0.0440
      2 C           4.9959   -1.8591   -1.1418 C.2     1  UNL1       -0.0796
      3 C           5.3999   -2.4509    0.1672 C.3     1  UNL1       -0.0440
      4 C           4.1228   -0.8706   -1.1900 C.2     1  UNL1       -0.0850
      5 C           3.4929   -0.2885    0.0282 C.3     1  UNL1       -0.0308
      6 C           3.8863    1.1774    0.0370 C.3     1  UNL1       -0.0285
      7 C           3.3726    1.9492    1.1576 C.2     1  UNL1       -0.0731
      8 C           3.7406    1.4749    2.5690 C.3     1  UNL1       -0.0437
      9 C           2.6222    3.0208    1.0977 C.2     1  UNL1       -0.0480
     10 C           2.1738    3.6189   -0.1728 C.3     1  UNL1        0.1125
     11 O           0.7824    3.6485   -0.2286 O.3     1  UNL1       -0.4460
     12 C           0.0031    2.4935   -0.1454 C.2     1  UNL1        0.4048
     13 O           0.5142    1.3668   -0.0141 O.2     1  UNL1       -0.2261
     14 N          -1.3953    2.6279   -0.2137 N.am    1  UNL1       -0.2512
     15 C          -2.3232    1.5714   -0.1461 C.ar    1  UNL1        0.0365
     16 C          -3.6932    1.8591   -0.2274 C.ar    1  UNL1       -0.0401
     17 C          -4.6772    0.9065   -0.1722 C.ar    1  UNL1       -0.0563
     18 C          -4.3451   -0.4151   -0.0299 C.ar    1  UNL1       -0.0419
     19 C          -5.4219   -1.4457    0.0294 C.3     1  UNL1       -0.0127
     20 C          -4.7769   -2.8003    0.1868 C.3     1  UNL1       -0.0560
     21 C          -6.2401   -1.1193    1.2815 C.3     1  UNL1       -0.0560
     22 C          -6.2815   -1.4228   -1.1945 C.3     1  UNL1       -0.0560
     23 C          -3.0123   -0.7503    0.0546 C.ar    1  UNL1       -0.0563
     24 C          -2.0274    0.2455   -0.0047 C.ar    1  UNL1       -0.0401
     25 H           4.9913   -2.1182   -3.2905 H       1  UNL1        0.0274
     26 H           5.6267   -3.5086   -2.3303 H       1  UNL1        0.0274
     27 H           6.6176   -2.0464   -2.5697 H       1  UNL1        0.0274
     28 H           5.7520   -1.6145    0.8195 H       1  UNL1        0.0274
     29 H           6.2286   -3.1469    0.0036 H       1  UNL1        0.0274
     30 H           4.5747   -3.0115    0.6299 H       1  UNL1        0.0274
     31 H           3.8439   -0.4567   -2.1445 H       1  UNL1        0.0572
     32 H           2.4198   -0.4630   -0.0652 H       1  UNL1        0.0310
     33 H           3.8778   -0.8177    0.9264 H       1  UNL1        0.0310
     34 H           5.0136    1.1749    0.0375 H       1  UNL1        0.0313
     35 H           3.5768    1.5904   -0.9177 H       1  UNL1        0.0313
     36 H           3.7112    0.3785    2.5559 H       1  UNL1        0.0274
     37 H           4.7096    1.9033    2.8681 H       1  UNL1        0.0274
     38 H           2.9775    1.8170    3.2691 H       1  UNL1        0.0274
     39 H           2.2959    3.5211    2.0590 H       1  UNL1        0.0605
     40 H           2.5483    3.1445   -1.0812 H       1  UNL1        0.0743
     41 H           2.5990    4.6751   -0.2319 H       1  UNL1        0.0743
     42 H          -1.8003    3.6239   -0.3280 H       1  UNL1        0.1582
     43 H          -3.9867    2.8763   -0.3385 H       1  UNL1        0.0636
     44 H          -5.7375    1.1459   -0.2368 H       1  UNL1        0.0621
     45 H          -5.5387   -3.6122    0.2214 H       1  UNL1        0.0238
     46 H          -4.1773   -2.8595    1.1158 H       1  UNL1        0.0238
     47 H          -4.1316   -2.9875   -0.6913 H       1  UNL1        0.0238
     48 H          -5.5501   -1.2206    2.1495 H       1  UNL1        0.0238
     49 H          -7.0665   -1.8295    1.4027 H       1  UNL1        0.0238
     50 H          -6.5762   -0.0730    1.1920 H       1  UNL1        0.0238
     51 H          -6.6268   -2.4420   -1.4871 H       1  UNL1        0.0238
     52 H          -5.7055   -1.0389   -2.0584 H       1  UNL1        0.0238
     53 H          -7.2216   -0.8256   -1.0425 H       1  UNL1        0.0238
     54 H          -2.7174   -1.8051    0.1694 H       1  UNL1        0.0621
     55 H          -1.0226   -0.1242    0.0704 H       1  UNL1        0.0636
@<TRIPOS>BOND
     1     1     2    1
     2     2     3    1
     3     2     4    2
     4     4     5    1
     5     5     6    1
     6     6     7    1
     7     7     8    1
     8     7     9    2
     9     9    10    1
    10    10    11    1
    11    11    12    1
    12    12    13    2
    13    12    14   am
    14    14    15    1
    15    15    16   ar
    16    16    17   ar
    17    17    18   ar
    18    18    19    1
    19    19    20    1
    20    19    21    1
    21    19    22    1
    22    18    23   ar
    23    23    24   ar
    24    24    15   ar
    25     1    25    1
    26     1    26    1
    27     1    27    1
    28     3    28    1
    29     3    29    1
    30     3    30    1
    31     4    31    1
    32     5    32    1
    33     5    33    1
    34     6    34    1
    35     6    35    1
    36     8    36    1
    37     8    37    1
    38     8    38    1
    39     9    39    1
    40    10    40    1
    41    10    41    1
    42    14    42    1
    43    16    43    1
    44    17    44    1
    45    20    45    1
    46    20    46    1
    47    20    47    1
    48    21    48    1
    49    21    49    1
    50    21    50    1
    51    22    51    1
    52    22    52    1
    53    22    53    1
    54    23    54    1
    55    24    55    1
@<TRIPOS>MOLECULE
50254074
 31 30 0 0 0
SMALL
GASTEIGER

@<TRIPOS>ATOM
      1 C          -4.2927    0.1801    0.2103 C.3     1  UNL1       -0.0440
      2 C          -2.8072    0.2362    0.1309 C.2     1  UNL1       -0.0796
      3 C          -2.1797    1.5624    0.1069 C.3     1  UNL1       -0.0440
      4 C          -2.1330   -0.8667    0.0903 C.2     1  UNL1       -0.0853
      5 C          -0.7242   -1.1835    0.0131 C.3     1  UNL1       -0.0343
      6 C           0.2835   -0.1106   -0.0589 C.3     1  UNL1       -0.0469
      7 C           1.6528   -0.8328   -0.1215 C.3     1  UNL1       -0.0415
      8 C           1.7829   -1.6727    1.1464 C.3     1  UNL1       -0.0623
      9 C           2.7747    0.1487   -0.1141 C.3     1  UNL1       -0.0271
     10 C           2.7334    1.1083   -1.2855 C.3     1  UNL1        0.0444
     11 O           3.8287    1.9766   -1.1855 O.3     1  UNL1       -0.3950
     12 H          -4.7402    1.1101    0.5674 H       1  UNL1        0.0274
     13 H          -4.6473    0.0204   -0.8488 H       1  UNL1        0.0274
     14 H          -4.6281   -0.7160    0.7727 H       1  UNL1        0.0274
     15 H          -1.5778    1.7986    1.0254 H       1  UNL1        0.0274
     16 H          -2.9835    2.3766    0.1523 H       1  UNL1        0.0274
     17 H          -1.6108    1.8029   -0.8076 H       1  UNL1        0.0274
     18 H          -2.7855   -1.8024    0.1218 H       1  UNL1        0.0571
     19 H          -0.4700   -1.8494    0.8976 H       1  UNL1        0.0307
     20 H          -0.5853   -1.8129   -0.9242 H       1  UNL1        0.0307
     21 H           0.3769    0.5433    0.8077 H       1  UNL1        0.0271
     22 H           0.2550    0.4339   -1.0257 H       1  UNL1        0.0271
     23 H           1.7294   -1.4919   -0.9877 H       1  UNL1        0.0299
     24 H           2.8686   -1.7809    1.3672 H       1  UNL1        0.0232
     25 H           1.2331   -1.1671    1.9749 H       1  UNL1        0.0232
     26 H           1.3877   -2.6985    0.9835 H       1  UNL1        0.0232
     27 H           2.7906    0.7359    0.8347 H       1  UNL1        0.0290
     28 H           3.7690   -0.3419   -0.1564 H       1  UNL1        0.0290
     29 H           2.7413    0.5555   -2.2335 H       1  UNL1        0.0557
     30 H           1.7987    1.7200   -1.2018 H       1  UNL1        0.0557
     31 H           4.1593    2.0180   -0.2511 H       1  UNL1        0.2094
@<TRIPOS>BOND
     1     1     2    1
     2     2     3    1
     3     2     4    2
     4     4     5    1
     5     5     6    1
     6     6     7    1
     7     7     8    1
     8     7     9    1
     9     9    10    1
    10    10    11    1
    11     1    12    1
    12     1    13    1
    13     1    14    1
    14     3    15    1
    15     3    16    1
    16     3    17    1
    17     4    18    1
    18     5    19    1
    19     5    20    1
    20     6    21    1
    21     6    22    1
    22     7    23    1
    23     8    24    1
    24     8    25    1
    25     8    26    1
    26     9    27    1
    27     9    28    1
    28    10    29    1
    29    10    30    1
    30    11    31    1
@<TRIPOS>MOLECULE
50254076
 46 46 0 0 0
SMALL
GASTEIGER

@<TRIPOS>ATOM
      1 C          -6.0953    0.8383   -0.5305 C.3     1  UNL1       -0.0440
      2 C          -5.9030    0.5285    0.9131 C.2     1  UNL1       -0.0796
      3 C          -6.8702    1.1387    1.8751 C.3     1  UNL1       -0.0440
      4 C          -4.9165   -0.2533    1.3178 C.2     1  UNL1       -0.0853
      5 C          -3.9445   -0.8676    0.3625 C.3     1  UNL1       -0.0343
      6 C          -2.5525   -0.4065    0.6952 C.3     1  UNL1       -0.0469
      7 C          -1.5655   -1.0120   -0.2325 C.3     1  UNL1       -0.0405
      8 C          -1.7255   -0.6928   -1.6820 C.3     1  UNL1       -0.0623
      9 C          -0.1247   -0.6308    0.1485 C.3     1  UNL1       -0.0159
     10 C           0.7543   -1.3212   -0.8685 C.3     1  UNL1        0.0930
     11 O           2.1239   -1.0651   -0.6463 O.3     1  UNL1       -0.4611
     12 C           2.6790    0.1988   -0.6636 C.2     1  UNL1        0.3392
     13 O           1.9311    1.1619   -0.8872 O.2     1  UNL1       -0.2450
     14 C           4.1138    0.3232   -0.4172 C.ar    1  UNL1        0.0590
     15 C           4.9059   -0.7795   -0.1726 C.ar    1  UNL1       -0.0475
     16 C           6.2616   -0.6789    0.0617 C.ar    1  UNL1       -0.0581
     17 C           6.8849    0.5498    0.0599 C.ar    1  UNL1       -0.0504
     18 C           8.3426    0.6929    0.3086 C.3     1  UNL1       -0.0397
     19 C           6.1186    1.6739   -0.1820 C.ar    1  UNL1       -0.0581
     20 C           4.7440    1.5501   -0.4176 C.ar    1  UNL1       -0.0475
     21 H          -5.2284    1.3994   -0.9479 H       1  UNL1        0.0274
     22 H          -6.1989   -0.1634   -1.0400 H       1  UNL1        0.0274
     23 H          -6.9863    1.4610   -0.6938 H       1  UNL1        0.0274
     24 H          -6.4520    1.1186    2.8945 H       1  UNL1        0.0274
     25 H          -7.1034    2.1492    1.5039 H       1  UNL1        0.0274
     26 H          -7.8034    0.5252    1.7910 H       1  UNL1        0.0274
     27 H          -4.8056   -0.4567    2.3649 H       1  UNL1        0.0571
     28 H          -3.9442   -1.9858    0.4698 H       1  UNL1        0.0307
     29 H          -4.2591   -0.6747   -0.6740 H       1  UNL1        0.0307
     30 H          -2.4828    0.7143    0.7297 H       1  UNL1        0.0271
     31 H          -2.2660   -0.7291    1.7384 H       1  UNL1        0.0271
     32 H          -1.5792   -2.1305   -0.0793 H       1  UNL1        0.0299
     33 H          -1.0531    0.1600   -2.0049 H       1  UNL1        0.0232
     34 H          -2.7687   -0.4542   -1.9060 H       1  UNL1        0.0232
     35 H          -1.4906   -1.6247   -2.2765 H       1  UNL1        0.0232
     36 H          -0.0437    0.4610    0.1405 H       1  UNL1        0.0301
     37 H           0.1139   -0.9769    1.1617 H       1  UNL1        0.0301
     38 H           0.4511   -1.1771   -1.9017 H       1  UNL1        0.0697
     39 H           0.6259   -2.4268   -0.6661 H       1  UNL1        0.0697
     40 H           4.4081   -1.7513   -0.1721 H       1  UNL1        0.0626
     41 H           6.8818   -1.5405    0.2530 H       1  UNL1        0.0620
     42 H           8.6187    1.7526    0.3043 H       1  UNL1        0.0278
     43 H           8.8500    0.1367   -0.5246 H       1  UNL1        0.0278
     44 H           8.5680    0.1959    1.2773 H       1  UNL1        0.0278
     45 H           6.6127    2.6236   -0.1812 H       1  UNL1        0.0620
     46 H           4.1733    2.4437   -0.6030 H       1  UNL1        0.0626
@<TRIPOS>BOND
     1     1     2    1
     2     2     3    1
     3     2     4    2
     4     4     5    1
     5     5     6    1
     6     6     7    1
     7     7     8    1
     8     7     9    1
     9     9    10    1
    10    10    11    1
    11    11    12    1
    12    12    13    2
    13    12    14    1
    14    14    15   ar
    15    15    16   ar
    16    16    17   ar
    17    17    18    1
    18    17    19   ar
    19    19    20   ar
    20    20    14   ar
    21     1    21    1
    22     1    22    1
    23     1    23    1
    24     3    24    1
    25     3    25    1
    26     3    26    1
    27     4    27    1
    28     5    28    1
    29     5    29    1
    30     6    30    1
    31     6    31    1
    32     7    32    1
    33     8    33    1
    34     8    34    1
    35     8    35    1
    36     9    36    1
    37     9    37    1
    38    10    38    1
    39    10    39    1
    40    15    40    1
    41    16    41    1
    42    18    42    1
    43    18    43    1
    44    18    44    1
    45    19    45    1
    46    20    46    1
@<TRIPOS>MOLECULE
50254079
 49 49 0 0 0
SMALL
GASTEIGER

@<TRIPOS>ATOM
      1 C          -6.2962   -0.7854   -0.2627 C.3     1  UNL1       -0.0440
      2 C          -5.9614    0.6090   -0.6190 C.2     1  UNL1       -0.0796
      3 C          -7.1233    1.3765   -1.2519 C.3     1  UNL1       -0.0440
      4 C          -4.8604    1.2609   -0.4748 C.2     1  UNL1       -0.0853
      5 C          -3.5335    0.9536    0.0628 C.3     1  UNL1       -0.0343
      6 C          -3.3603   -0.4728    0.4342 C.3     1  UNL1       -0.0469
      7 C          -1.9835   -0.7481    1.0344 C.3     1  UNL1       -0.0405
      8 C          -1.7097    0.0391    2.2637 C.3     1  UNL1       -0.0623
      9 C          -0.9629   -0.6791   -0.0399 C.3     1  UNL1       -0.0159
     10 C           0.4336   -0.9481    0.4884 C.3     1  UNL1        0.0927
     11 O           1.3216   -0.8585   -0.6092 O.3     1  UNL1       -0.4646
     12 C           2.7040   -1.0616   -0.4394 C.2     1  UNL1        0.3074
     13 O           3.0591   -1.3169    0.7182 O.2     1  UNL1       -0.2508
     14 C           3.5301   -0.9459   -1.6382 C.3     1  UNL1        0.0489
     15 C           4.9884   -1.1509   -1.4678 C.3     1  UNL1       -0.0176
     16 C           5.6621   -0.2053   -0.5433 C.ar    1  UNL1       -0.0468
     17 C           6.0650    1.0567   -1.0085 C.ar    1  UNL1       -0.0586
     18 C           6.7131    1.9777   -0.2267 C.ar    1  UNL1       -0.0615
     19 C           6.9815    1.6447    1.0827 C.ar    1  UNL1       -0.0617
     20 C           6.6053    0.4192    1.5807 C.ar    1  UNL1       -0.0615
     21 C           5.9492   -0.5013    0.7714 C.ar    1  UNL1       -0.0586
     22 H          -6.4613   -0.8395    0.8509 H       1  UNL1        0.0274
     23 H          -7.3198   -1.0401   -0.7112 H       1  UNL1        0.0274
     24 H          -5.6242   -1.5562   -0.6364 H       1  UNL1        0.0274
     25 H          -6.7454    2.2979   -1.7095 H       1  UNL1        0.0274
     26 H          -7.8574    1.5833   -0.4534 H       1  UNL1        0.0274
     27 H          -7.5657    0.6774   -2.0013 H       1  UNL1        0.0274
     28 H          -4.9134    2.3478   -0.8539 H       1  UNL1        0.0571
     29 H          -3.2675    1.6249    0.9297 H       1  UNL1        0.0307
     30 H          -2.7585    1.2294   -0.7222 H       1  UNL1        0.0307
     31 H          -3.4379   -1.0881   -0.5179 H       1  UNL1        0.0271
     32 H          -4.1631   -0.8114    1.0965 H       1  UNL1        0.0271
     33 H          -2.0450   -1.8327    1.3574 H       1  UNL1        0.0299
     34 H          -0.9651   -0.4450    2.8984 H       1  UNL1        0.0232
     35 H          -1.3714    1.0777    2.0723 H       1  UNL1        0.0232
     36 H          -2.6741    0.1128    2.8377 H       1  UNL1        0.0232
     37 H          -1.0163    0.2632   -0.5928 H       1  UNL1        0.0301
     38 H          -1.1842   -1.5010   -0.7698 H       1  UNL1        0.0301
     39 H           0.6780   -0.1413    1.1840 H       1  UNL1        0.0697
     40 H           0.4208   -1.9533    0.9445 H       1  UNL1        0.0697
     41 H           3.3987    0.1082   -2.0343 H       1  UNL1        0.0381
     42 H           3.1759   -1.6622   -2.4423 H       1  UNL1        0.0381
     43 H           5.1068   -2.1623   -0.9695 H       1  UNL1        0.0318
     44 H           5.5399   -1.2352   -2.4325 H       1  UNL1        0.0318
     45 H           5.8312    1.2733   -2.0476 H       1  UNL1        0.0620
     46 H           7.0023    2.9493   -0.6513 H       1  UNL1        0.0618
     47 H           7.4995    2.3624    1.7340 H       1  UNL1        0.0618
     48 H           6.8271    0.1848    2.6064 H       1  UNL1        0.0618
     49 H           5.6683   -1.4876    1.1802 H       1  UNL1        0.0620
@<TRIPOS>BOND
     1     1     2    1
     2     2     3    1
     3     2     4    2
     4     4     5    1
     5     5     6    1
     6     6     7    1
     7     7     8    1
     8     7     9    1
     9     9    10    1
    10    10    11    1
    11    11    12    1
    12    12    13    2
    13    12    14    1
    14    14    15    1
    15    15    16    1
    16    16    17   ar
    17    17    18   ar
    18    18    19   ar
    19    19    20   ar
    20    20    21   ar
    21    21    16   ar
    22     1    22    1
    23     1    23    1
    24     1    24    1
    25     3    25    1
    26     3    26    1
    27     3    27    1
    28     4    28    1
    29     5    29    1
    30     5    30    1
    31     6    31    1
    32     6    32    1
    33     7    33    1
    34     8    34    1
    35     8    35    1
    36     8    36    1
    37     9    37    1
    38     9    38    1
    39    10    39    1
    40    10    40    1
    41    14    41    1
    42    14    42    1
    43    15    43    1
    44    15    44    1
    45    17    45    1
    46    18    46    1
    47    19    47    1
    48    20    48    1
    49    21    49    1
@<TRIPOS>MOLECULE
51028025
 49 50 0 0 0
SMALL
GASTEIGER

@<TRIPOS>ATOM
      1 C          -4.8255    2.1602    2.9717 C.3     1  UNL1       -0.0397
      2 C          -4.4167    1.3944    1.7662 C.ar    1  UNL1       -0.0497
      3 C          -5.3991    0.9812    0.8807 C.ar    1  UNL1       -0.0585
      4 C          -5.0587    0.2714   -0.2433 C.ar    1  UNL1       -0.0573
      5 C          -3.7061   -0.0397   -0.5003 C.ar    1  UNL1       -0.0308
      6 C          -3.3976   -0.8215   -1.7058 C.3     1  UNL1       -0.0207
      7 C          -2.9065    0.0220   -2.8470 C.3     1  UNL1       -0.0586
      8 C          -4.6812   -1.5315   -2.2127 C.3     1  UNL1       -0.0586
      9 C          -2.7297    0.3551    0.3516 C.ar    1  UNL1        0.0631
     10 C          -1.3343    0.0955    0.1439 C.2     1  UNL1        0.3447
     11 O          -0.9351   -0.5118   -0.8579 O.2     1  UNL1       -0.2445
     12 O          -0.3429    0.5059    1.0481 O.3     1  UNL1       -0.4223
     13 C           1.0034    0.2427    0.8254 C.ar    1  UNL1        0.1320
     14 C           1.7532    1.1625    0.1273 C.ar    1  UNL1       -0.0189
     15 C           3.0927    0.9473   -0.1193 C.ar    1  UNL1       -0.0546
     16 C           3.7093   -0.2024    0.3326 C.ar    1  UNL1       -0.0418
     17 C           5.1349   -0.4663    0.0889 C.3     1  UNL1       -0.0127
     18 C           5.7964    0.6480   -0.6901 C.3     1  UNL1       -0.0560
     19 C           5.8577   -0.6054    1.3940 C.3     1  UNL1       -0.0560
     20 C           5.3322   -1.7399   -0.7011 C.3     1  UNL1       -0.0560
     21 C           2.9718   -1.1261    1.0295 C.ar    1  UNL1       -0.0546
     22 C           1.6141   -0.9257    1.2890 C.ar    1  UNL1       -0.0189
     23 C          -3.1037    1.0824    1.4991 C.ar    1  UNL1       -0.0446
     24 H          -3.9076    2.4199    3.5600 H       1  UNL1        0.0278
     25 H          -5.5527    1.6087    3.5918 H       1  UNL1        0.0278
     26 H          -5.3068    3.1325    2.7082 H       1  UNL1        0.0278
     27 H          -6.4469    1.2100    1.0593 H       1  UNL1        0.0620
     28 H          -5.7902   -0.0743   -0.9675 H       1  UNL1        0.0621
     29 H          -2.6922   -1.6546   -1.5490 H       1  UNL1        0.0344
     30 H          -2.0781   -0.5127   -3.3522 H       1  UNL1        0.0235
     31 H          -2.5287    1.0026   -2.4887 H       1  UNL1        0.0235
     32 H          -3.6900    0.1485   -3.6253 H       1  UNL1        0.0235
     33 H          -4.3910   -2.3774   -2.8882 H       1  UNL1        0.0235
     34 H          -5.2347   -1.9891   -1.3752 H       1  UNL1        0.0235
     35 H          -5.2829   -0.8069   -2.7973 H       1  UNL1        0.0235
     36 H           1.3077    2.0699   -0.2404 H       1  UNL1        0.0654
     37 H           3.7011    1.6482   -0.6612 H       1  UNL1        0.0622
     38 H           5.3236    0.7127   -1.6858 H       1  UNL1        0.0238
     39 H           5.8430    1.5941   -0.1497 H       1  UNL1        0.0238
     40 H           6.8572    0.3209   -0.8647 H       1  UNL1        0.0238
     41 H           5.2464   -0.1204    2.1826 H       1  UNL1        0.0238
     42 H           6.8824   -0.1571    1.3557 H       1  UNL1        0.0238
     43 H           5.9051   -1.6870    1.6492 H       1  UNL1        0.0238
     44 H           6.4406   -1.8567   -0.8529 H       1  UNL1        0.0238
     45 H           4.9460   -2.6298   -0.1796 H       1  UNL1        0.0238
     46 H           4.9164   -1.6137   -1.7268 H       1  UNL1        0.0238
     47 H           3.4075   -2.0375    1.4021 H       1  UNL1        0.0622
     48 H           1.0348   -1.6529    1.8372 H       1  UNL1        0.0654
     49 H          -2.3386    1.4039    2.1882 H       1  UNL1        0.0628
@<TRIPOS>BOND
     1     1     2    1
     2     2     3   ar
     3     3     4   ar
     4     4     5   ar
     5     5     6    1
     6     6     7    1
     7     6     8    1
     8     5     9   ar
     9     9    10    1
    10    10    11    2
    11    10    12    1
    12    12    13    1
    13    13    14   ar
    14    14    15   ar
    15    15    16   ar
    16    16    17    1
    17    17    18    1
    18    17    19    1
    19    17    20    1
    20    16    21   ar
    21    21    22   ar
    22     9    23   ar
    23    23     2   ar
    24    22    13   ar
    25     1    24    1
    26     1    25    1
    27     1    26    1
    28     3    27    1
    29     4    28    1
    30     6    29    1
    31     7    30    1
    32     7    31    1
    33     7    32    1
    34     8    33    1
    35     8    34    1
    36     8    35    1
    37    14    36    1
    38    15    37    1
    39    18    38    1
    40    18    39    1
    41    18    40    1
    42    19    41    1
    43    19    42    1
    44    19    43    1
    45    20    44    1
    46    20    45    1
    47    20    46    1
    48    21    47    1
    49    22    48    1
    50    23    49    1
@<TRIPOS>MOLECULE
51028024
 47 49 0 0 0
SMALL
GASTEIGER

@<TRIPOS>ATOM
      1 C           5.5294    1.2375   -3.3240 C.3     1  UNL1       -0.0397
      2 C           4.8379    0.9228   -2.0493 C.ar    1  UNL1       -0.0497
      3 C           5.5322    0.7299   -0.8742 C.ar    1  UNL1       -0.0585
      4 C           4.9283    0.4396    0.3099 C.ar    1  UNL1       -0.0573
      5 C           3.5280    0.3270    0.3568 C.ar    1  UNL1       -0.0308
      6 C           2.8793    0.0362    1.6393 C.3     1  UNL1       -0.0207
      7 C           2.4900   -1.4243    1.7779 C.3     1  UNL1       -0.0586
      8 C           3.8600    0.3083    2.8057 C.3     1  UNL1       -0.0586
      9 C           2.7930    0.5097   -0.7876 C.ar    1  UNL1        0.0631
     10 C           1.3449    0.3792   -0.7967 C.2     1  UNL1        0.3447
     11 O           0.7384    0.5760   -1.9062 O.2     1  UNL1       -0.2445
     12 O           0.5417    0.0630    0.2626 O.3     1  UNL1       -0.4223
     13 C          -0.8368   -0.0518    0.2024 C.ar    1  UNL1        0.1320
     14 C          -1.4477   -1.2516   -0.0662 C.ar    1  UNL1       -0.0186
     15 C          -2.8328   -1.3282   -0.1187 C.ar    1  UNL1       -0.0506
     16 C          -3.6194   -0.2100    0.0961 C.ar    1  UNL1       -0.0177
     17 C          -5.0888   -0.3382    0.0313 C.ar    1  UNL1       -0.0179
     18 C          -5.6966   -1.5154    0.4131 C.ar    1  UNL1       -0.0540
     19 C          -7.0632   -1.7097    0.3800 C.ar    1  UNL1       -0.0612
     20 C          -7.8753   -0.6720   -0.0591 C.ar    1  UNL1       -0.0617
     21 C          -7.2672    0.5097   -0.4427 C.ar    1  UNL1       -0.0612
     22 C          -5.8970    0.6880   -0.4033 C.ar    1  UNL1       -0.0540
     23 C          -3.0135    0.9877    0.3641 C.ar    1  UNL1       -0.0506
     24 C          -1.6200    1.0583    0.4156 C.ar    1  UNL1       -0.0186
     25 C           3.4732    0.8078   -1.9806 C.ar    1  UNL1       -0.0446
     26 H           6.4995    0.7097   -3.3093 H       1  UNL1        0.0278
     27 H           5.7749    2.3321   -3.2838 H       1  UNL1        0.0278
     28 H           4.9186    1.0340   -4.2036 H       1  UNL1        0.0278
     29 H           6.6201    0.8139   -0.8951 H       1  UNL1        0.0620
     30 H           5.4567    0.2834    1.2415 H       1  UNL1        0.0621
     31 H           2.0039    0.6556    1.8570 H       1  UNL1        0.0344
     32 H           2.4828   -1.8881    0.7666 H       1  UNL1        0.0235
     33 H           3.2491   -2.0028    2.3641 H       1  UNL1        0.0235
     34 H           1.5271   -1.5576    2.2926 H       1  UNL1        0.0235
     35 H           4.4004    1.2473    2.6808 H       1  UNL1        0.0235
     36 H           3.2817    0.2809    3.7678 H       1  UNL1        0.0235
     37 H           4.6032   -0.5079    2.9029 H       1  UNL1        0.0235
     38 H          -0.8624   -2.1661   -0.2436 H       1  UNL1        0.0654
     39 H          -3.3117   -2.2721   -0.3297 H       1  UNL1        0.0625
     40 H          -5.0976   -2.3406    0.7578 H       1  UNL1        0.0624
     41 H          -7.5074   -2.6576    0.6910 H       1  UNL1        0.0618
     42 H          -8.9443   -0.8264   -0.0851 H       1  UNL1        0.0618
     43 H          -7.9431    1.3040   -0.7827 H       1  UNL1        0.0618
     44 H          -5.4656    1.6307   -0.7137 H       1  UNL1        0.0624
     45 H          -3.5930    1.8674    0.5344 H       1  UNL1        0.0625
     46 H          -1.1893    2.0282    0.6307 H       1  UNL1        0.0654
     47 H           2.8783    0.9528   -2.8875 H       1  UNL1        0.0628
@<TRIPOS>BOND
     1     1     2    1
     2     2     3   ar
     3     3     4   ar
     4     4     5   ar
     5     5     6    1
     6     6     7    1
     7     6     8    1
     8     5     9   ar
     9     9    10    1
    10    10    11    2
    11    10    12    1
    12    12    13    1
    13    13    14   ar
    14    14    15   ar
    15    15    16   ar
    16    16    17    1
    17    17    18   ar
    18    18    19   ar
    19    19    20   ar
    20    20    21   ar
    21    21    22   ar
    22    16    23   ar
    23    23    24   ar
    24     9    25   ar
    25    25     2   ar
    26    24    13   ar
    27    22    17   ar
    28     1    26    1
    29     1    27    1
    30     1    28    1
    31     3    29    1
    32     4    30    1
    33     6    31    1
    34     7    32    1
    35     7    33    1
    36     7    34    1
    37     8    35    1
    38     8    36    1
    39     8    37    1
    40    14    38    1
    41    15    39    1
    42    18    40    1
    43    19    41    1
    44    20    42    1
    45    21    43    1
    46    22    44    1
    47    23    45    1
    48    24    46    1
    49    25    47    1
@<TRIPOS>MOLECULE
51028023
 37 38 0 0 0
SMALL
GASTEIGER

@<TRIPOS>ATOM
      1 C          -2.4971   -4.2641    0.9769 C.3     1  UNL1       -0.0397
      2 C          -2.1234   -2.8315    0.9004 C.ar    1  UNL1       -0.0497
      3 C          -3.0049   -1.8800    1.3532 C.ar    1  UNL1       -0.0585
      4 C          -2.7127   -0.5332    1.3080 C.ar    1  UNL1       -0.0573
      5 C          -1.4916   -0.0879    0.7921 C.ar    1  UNL1       -0.0308
      6 C          -1.2513    1.3699    0.7998 C.3     1  UNL1       -0.0207
      7 C          -1.5508    1.9982   -0.5322 C.3     1  UNL1       -0.0586
      8 C          -2.2236    2.0570    1.7843 C.3     1  UNL1       -0.0586
      9 C          -0.6038   -1.0314    0.3360 C.ar    1  UNL1        0.0631
     10 C           0.6663   -0.6064   -0.2301 C.2     1  UNL1        0.3447
     11 O           1.4544   -1.5435   -0.6270 O.2     1  UNL1       -0.2445
     12 O           1.0994    0.6828   -0.3808 O.3     1  UNL1       -0.4223
     13 C           2.3442    0.9137   -0.9439 C.ar    1  UNL1        0.1321
     14 C           3.4683    0.9902   -0.1501 C.ar    1  UNL1       -0.0178
     15 C           4.7233    1.2197   -0.6862 C.ar    1  UNL1       -0.0399
     16 C           4.9031    1.3823   -2.0432 C.ar    1  UNL1        0.0412
     17 CL          6.4877    1.6708   -2.7065 Cl      1  UNL1       -0.0835
     18 C           3.7905    1.3081   -2.8437 C.ar    1  UNL1       -0.0399
     19 C           2.5429    1.0805   -2.3167 C.ar    1  UNL1       -0.0178
     20 C          -0.9330   -2.3774    0.3982 C.ar    1  UNL1       -0.0446
     21 H          -3.2056   -4.4770    1.7855 H       1  UNL1        0.0278
     22 H          -1.5866   -4.8785    1.1549 H       1  UNL1        0.0278
     23 H          -2.9085   -4.6164   -0.0056 H       1  UNL1        0.0278
     24 H          -3.9631   -2.1983    1.7601 H       1  UNL1        0.0620
     25 H          -3.4232    0.1983    1.6687 H       1  UNL1        0.0621
     26 H          -0.2439    1.6409    1.1233 H       1  UNL1        0.0344
     27 H          -2.5784    2.4067   -0.5752 H       1  UNL1        0.0235
     28 H          -0.8669    2.8528   -0.6712 H       1  UNL1        0.0235
     29 H          -1.3769    1.3149   -1.3875 H       1  UNL1        0.0235
     30 H          -1.7822    3.0832    1.9158 H       1  UNL1        0.0235
     31 H          -3.1954    2.1664    1.2666 H       1  UNL1        0.0235
     32 H          -2.2707    1.4937    2.7081 H       1  UNL1        0.0235
     33 H           3.3634    0.8656    0.9352 H       1  UNL1        0.0655
     34 H           5.6073    1.2798   -0.0609 H       1  UNL1        0.0633
     35 H           3.9089    1.4322   -3.9056 H       1  UNL1        0.0633
     36 H           1.6599    1.0202   -2.9377 H       1  UNL1        0.0655
     37 H          -0.2259   -3.1025    0.0372 H       1  UNL1        0.0628
@<TRIPOS>BOND
     1     1     2    1
     2     2     3   ar
     3     3     4   ar
     4     4     5   ar
     5     5     6    1
     6     6     7    1
     7     6     8    1
     8     5     9   ar
     9     9    10    1
    10    10    11    2
    11    10    12    1
    12    12    13    1
    13    13    14   ar
    14    14    15   ar
    15    15    16   ar
    16    16    17    1
    17    16    18   ar
    18    18    19   ar
    19     9    20   ar
    20    20     2   ar
    21    19    13   ar
    22     1    21    1
    23     1    22    1
    24     1    23    1
    25     3    24    1
    26     4    25    1
    27     6    26    1
    28     7    27    1
    29     7    28    1
    30     7    29    1
    31     8    30    1
    32     8    31    1
    33     8    32    1
    34    14    33    1
    35    15    34    1
    36    18    35    1
    37    19    36    1
    38    20    37    1
@<TRIPOS>MOLECULE
51028026
 50 52 0 0 0
SMALL
GASTEIGER

@<TRIPOS>ATOM
      1 C          -4.9192    3.4876    2.0277 C.3     1  UNL1       -0.0396
      2 C          -4.5533    2.1589    1.4626 C.ar    1  UNL1       -0.0470
      3 C          -5.1447    1.0405    1.9686 C.ar    1  UNL1       -0.0583
      4 C          -4.8107   -0.1995    1.4485 C.ar    1  UNL1       -0.0546
      5 C          -3.8772   -0.2697    0.4200 C.ar    1  UNL1       -0.0024
      6 C          -3.5049   -1.5703   -0.1516 C.3     1  UNL1       -0.0180
      7 C          -4.4712   -1.8246   -1.3154 C.3     1  UNL1       -0.0585
      8 C          -3.5696   -2.7147    0.8225 C.3     1  UNL1       -0.0585
      9 C          -3.2777    0.8545   -0.0940 C.ar    1  UNL1        0.1353
     10 O          -2.3512    0.7716   -1.1163 O.3     1  UNL1       -0.4253
     11 C          -0.9888    0.6442   -0.9109 C.2     1  UNL1        0.3167
     12 O          -0.5795    0.6023    0.2754 O.2     1  UNL1       -0.2501
     13 C           0.0051    0.5555   -1.9929 C.3     1  UNL1        0.0705
     14 C           1.3822    0.4290   -1.5210 C.ar    1  UNL1       -0.0367
     15 C           2.2238    1.4900   -1.2630 C.ar    1  UNL1       -0.0575
     16 C           3.5084    1.2531   -0.8187 C.ar    1  UNL1       -0.0538
     17 C           3.9773   -0.0297   -0.6240 C.ar    1  UNL1       -0.0179
     18 C           5.3422   -0.2976   -0.1515 C.ar    1  UNL1       -0.0179
     19 C           5.9954    0.5661    0.7035 C.ar    1  UNL1       -0.0540
     20 C           7.2891    0.3051    1.1466 C.ar    1  UNL1       -0.0612
     21 C           7.9637   -0.8285    0.7451 C.ar    1  UNL1       -0.0617
     22 C           7.3002   -1.6855   -0.1105 C.ar    1  UNL1       -0.0612
     23 C           6.0188   -1.4306   -0.5516 C.ar    1  UNL1       -0.0540
     24 C           3.1438   -1.1064   -0.8788 C.ar    1  UNL1       -0.0538
     25 C           1.8756   -0.8504   -1.3181 C.ar    1  UNL1       -0.0575
     26 C          -3.6131    2.0825    0.4260 C.ar    1  UNL1       -0.0160
     27 H          -5.9545    3.7110    1.6955 H       1  UNL1        0.0278
     28 H          -4.2651    4.2682    1.5894 H       1  UNL1        0.0278
     29 H          -4.8079    3.5173    3.1293 H       1  UNL1        0.0278
     30 H          -5.8787    1.1008    2.7779 H       1  UNL1        0.0620
     31 H          -5.2957   -1.0694    1.8688 H       1  UNL1        0.0622
     32 H          -2.4797   -1.5812   -0.5930 H       1  UNL1        0.0345
     33 H          -5.5079   -1.8943   -0.9892 H       1  UNL1        0.0235
     34 H          -4.2753   -1.0023   -2.0375 H       1  UNL1        0.0235
     35 H          -4.1256   -2.7675   -1.8111 H       1  UNL1        0.0235
     36 H          -4.5421   -2.8701    1.2855 H       1  UNL1        0.0235
     37 H          -3.3667   -3.6440    0.2142 H       1  UNL1        0.0235
     38 H          -2.7196   -2.6455    1.5272 H       1  UNL1        0.0235
     39 H          -0.2958   -0.3249   -2.6309 H       1  UNL1        0.0426
     40 H          -0.0469    1.4305   -2.6830 H       1  UNL1        0.0426
     41 H           1.8409    2.4896   -1.4206 H       1  UNL1        0.0621
     42 H           4.1873    2.0681   -0.6094 H       1  UNL1        0.0624
     43 H           5.4760    1.4603    1.0266 H       1  UNL1        0.0624
     44 H           7.7969    0.9857    1.8172 H       1  UNL1        0.0618
     45 H           8.9743   -1.0645    1.0711 H       1  UNL1        0.0618
     46 H           7.8326   -2.5825   -0.4294 H       1  UNL1        0.0618
     47 H           5.5051   -2.1208   -1.2308 H       1  UNL1        0.0624
     48 H           3.4950   -2.1279   -0.7310 H       1  UNL1        0.0624
     49 H           1.2485   -1.7361   -1.5079 H       1  UNL1        0.0621
     50 H          -3.1593    2.9661    0.0415 H       1  UNL1        0.0657
@<TRIPOS>BOND
     1     1     2    1
     2     2     3   ar
     3     3     4   ar
     4     4     5   ar
     5     5     6    1
     6     6     7    1
     7     6     8    1
     8     5     9   ar
     9     9    10    1
    10    10    11    1
    11    11    12    2
    12    11    13    1
    13    13    14    1
    14    14    15   ar
    15    15    16   ar
    16    16    17   ar
    17    17    18    1
    18    18    19   ar
    19    19    20   ar
    20    20    21   ar
    21    21    22   ar
    22    22    23   ar
    23    17    24   ar
    24    24    25   ar
    25     9    26   ar
    26    26     2   ar
    27    25    14   ar
    28    23    18   ar
    29     1    27    1
    30     1    28    1
    31     1    29    1
    32     3    30    1
    33     4    31    1
    34     6    32    1
    35     7    33    1
    36     7    34    1
    37     7    35    1
    38     8    36    1
    39     8    37    1
    40     8    38    1
    41    13    39    1
    42    13    40    1
    43    15    41    1
    44    16    42    1
    45    19    43    1
    46    20    44    1
    47    21    45    1
    48    22    46    1
    49    23    47    1
    50    24    48    1
    51    25    49    1
    52    26    50    1
@<TRIPOS>MOLECULE
51129923
 55 57 0 0 0
SMALL
GASTEIGER

@<TRIPOS>ATOM
      1 C           6.9993   -1.0430    0.6546 C.3     1  UNL1       -0.0653
      2 C           6.8360    0.3761    1.1315 C.3     1  UNL1       -0.0559
      3 C           5.8437    1.1544    0.2853 C.3     1  UNL1       -0.0530
      4 C           4.4675    0.5245    0.3072 C.3     1  UNL1       -0.0491
      5 C           3.5711    1.3712   -0.5577 C.3     1  UNL1       -0.0275
      6 C           2.1846    0.8663   -0.6263 C.ar    1  UNL1       -0.0404
      7 C           1.8643   -0.0326   -1.6219 C.ar    1  UNL1       -0.0165
      8 C           0.5991   -0.5617   -1.7700 C.ar    1  UNL1        0.1238
      9 O           0.3359   -1.4768   -2.8093 O.3     1  UNL1       -0.5064
     10 C          -0.3952   -0.1844   -0.8930 C.ar    1  UNL1        0.0361
     11 C          -0.1125    0.7126    0.1156 C.ar    1  UNL1        0.1282
     12 C           1.1746    1.2241    0.2328 C.ar    1  UNL1       -0.0162
     13 O          -1.1126    1.1146    1.0260 O.3     1  UNL1       -0.4853
     14 C          -2.4455    0.8678    0.5437 C.3     1  UNL1        0.1115
     15 C          -2.6249    1.7781   -0.6389 C.3     1  UNL1       -0.0246
     16 C          -3.4544    1.1982    1.6016 C.3     1  UNL1       -0.0129
     17 C          -4.8294    0.9525    1.1018 C.3     1  UNL1       -0.0490
     18 C          -4.9917   -0.2247    0.2131 C.3     1  UNL1       -0.0474
     19 C          -3.8578   -1.1830    0.1997 C.3     1  UNL1       -0.0281
     20 C          -4.0554   -2.1395    1.3840 C.3     1  UNL1       -0.0594
     21 C          -4.0012   -2.0602   -1.0462 C.3     1  UNL1       -0.0594
     22 C          -2.5039   -0.5890    0.1968 C.3     1  UNL1        0.0080
     23 C          -1.7411   -0.7842   -1.0968 C.3     1  UNL1       -0.0138
     24 H           8.0823   -1.3258    0.7678 H       1  UNL1        0.0230
     25 H           6.7774   -1.1352   -0.4284 H       1  UNL1        0.0230
     26 H           6.3589   -1.7129    1.2679 H       1  UNL1        0.0230
     27 H           7.8114    0.8988    1.0173 H       1  UNL1        0.0263
     28 H           6.5354    0.4160    2.2020 H       1  UNL1        0.0263
     29 H           6.2690    1.1678   -0.7520 H       1  UNL1        0.0265
     30 H           5.8408    2.1932    0.6360 H       1  UNL1        0.0265
     31 H           4.1373    0.5049    1.3618 H       1  UNL1        0.0268
     32 H           4.5589   -0.4889   -0.1351 H       1  UNL1        0.0268
     33 H           3.5803    2.4190   -0.1593 H       1  UNL1        0.0313
     34 H           3.9927    1.3716   -1.5824 H       1  UNL1        0.0313
     35 H           2.6156   -0.3538   -2.3299 H       1  UNL1        0.0657
     36 H           1.0632   -1.6946   -3.4567 H       1  UNL1        0.2921
     37 H           1.3952    1.9284    1.0254 H       1  UNL1        0.0657
     38 H          -1.6842    1.9033   -1.2244 H       1  UNL1        0.0268
     39 H          -2.8554    2.8016   -0.2267 H       1  UNL1        0.0268
     40 H          -3.4007    1.4778   -1.3369 H       1  UNL1        0.0268
     41 H          -3.2433    0.6692    2.5568 H       1  UNL1        0.0304
     42 H          -3.3513    2.2887    1.8304 H       1  UNL1        0.0304
     43 H          -5.1727    1.8595    0.5229 H       1  UNL1        0.0267
     44 H          -5.5170    0.9261    1.9946 H       1  UNL1        0.0267
     45 H          -5.9016   -0.7918    0.5744 H       1  UNL1        0.0271
     46 H          -5.2635    0.0460   -0.8497 H       1  UNL1        0.0271
     47 H          -3.5489   -3.0970    1.2229 H       1  UNL1        0.0235
     48 H          -5.1598   -2.3597    1.3846 H       1  UNL1        0.0235
     49 H          -3.8444   -1.6574    2.3426 H       1  UNL1        0.0235
     50 H          -3.3095   -2.9152   -0.8998 H       1  UNL1        0.0235
     51 H          -5.0299   -2.4818   -1.0289 H       1  UNL1        0.0235
     52 H          -3.7680   -1.5264   -1.9668 H       1  UNL1        0.0235
     53 H          -1.8951   -1.1261    0.9839 H       1  UNL1        0.0348
     54 H          -1.6177   -1.8519   -1.3099 H       1  UNL1        0.0320
     55 H          -2.2058   -0.2152   -1.9370 H       1  UNL1        0.0320
@<TRIPOS>BOND
     1     1     2    1
     2     2     3    1
     3     3     4    1
     4     4     5    1
     5     5     6    1
     6     6     7   ar
     7     7     8   ar
     8     8     9    1
     9     8    10   ar
    10    10    11   ar
    11    11    12   ar
    12    11    13    1
    13    13    14    1
    14    14    15    1
    15    14    16    1
    16    16    17    1
    17    17    18    1
    18    18    19    1
    19    19    20    1
    20    19    21    1
    21    19    22    1
    22    22    23    1
    23    12     6   ar
    24    22    14    1
    25    23    10    1
    26     1    24    1
    27     1    25    1
    28     1    26    1
    29     2    27    1
    30     2    28    1
    31     3    29    1
    32     3    30    1
    33     4    31    1
    34     4    32    1
    35     5    33    1
    36     5    34    1
    37     7    35    1
    38     9    36    1
    39    12    37    1
    40    15    38    1
    41    15    39    1
    42    15    40    1
    43    16    41    1
    44    16    42    1
    45    17    43    1
    46    17    44    1
    47    18    45    1
    48    18    46    1
    49    20    47    1
    50    20    48    1
    51    20    49    1
    52    21    50    1
    53    21    51    1
    54    21    52    1
    55    22    53    1
    56    23    54    1
    57    23    55    1
@<TRIPOS>MOLECULE
51129902
 70 72 0 0 0
SMALL
GASTEIGER

@<TRIPOS>ATOM
      1 C           6.8697   -0.4288    0.3827 C.3     1  UNL1       -0.0653
      2 C           7.2054   -1.3998   -0.6823 C.3     1  UNL1       -0.0559
      3 C           6.9774   -1.0003   -2.0800 C.3     1  UNL1       -0.0530
      4 C           5.6921   -0.7362   -2.6875 C.3     1  UNL1       -0.0491
      5 C           4.7114    0.2989   -2.4316 C.3     1  UNL1       -0.0275
      6 C           4.0555    0.4173   -1.1367 C.ar    1  UNL1       -0.0404
      7 C           4.2966    1.4354   -0.2161 C.ar    1  UNL1       -0.0165
      8 C           3.6640    1.5232    0.9967 C.ar    1  UNL1        0.1238
      9 O           3.9278    2.5541    1.8946 O.3     1  UNL1       -0.5064
     10 C           2.7419    0.5839    1.3614 C.ar    1  UNL1        0.0358
     11 C           2.4585   -0.4485    0.4955 C.ar    1  UNL1        0.1282
     12 C           3.0990   -0.5216   -0.7119 C.ar    1  UNL1       -0.0162
     13 O           1.5113   -1.3871    0.9040 O.3     1  UNL1       -0.4856
     14 C           0.3825   -1.0380    1.6737 C.3     1  UNL1        0.1082
     15 C           0.1882   -2.0897    2.7429 C.3     1  UNL1       -0.0249
     16 C          -0.8855   -1.0516    0.8052 C.3     1  UNL1       -0.0131
     17 C          -2.0209   -0.6786    1.6756 C.3     1  UNL1       -0.0487
     18 C          -3.3898   -0.6586    1.1237 C.3     1  UNL1       -0.0437
     19 C          -3.6254    0.2622    0.0035 C.3     1  UNL1       -0.0098
     20 C          -2.8177   -0.0253   -1.2264 C.3     1  UNL1       -0.0558
     21 C          -3.2619    1.7151    0.3986 C.3     1  UNL1       -0.0558
     22 C          -5.0544    0.3510   -0.4064 C.ar    1  UNL1       -0.0417
     23 C          -6.0817   -0.3290    0.1828 C.ar    1  UNL1       -0.0578
     24 C          -7.3865   -0.1640   -0.2946 C.ar    1  UNL1       -0.0586
     25 C          -7.6529    0.6694   -1.3449 C.ar    1  UNL1       -0.0504
     26 C          -9.0492    0.8616   -1.8743 C.3     1  UNL1       -0.0397
     27 C          -6.6164    1.3550   -1.9388 C.ar    1  UNL1       -0.0586
     28 C          -5.3365    1.1879   -1.4643 C.ar    1  UNL1       -0.0578
     29 C           0.5533    0.3034    2.3296 C.3     1  UNL1       -0.0090
     30 C           2.0041    0.5916    2.6531 C.3     1  UNL1       -0.0171
     31 H           5.8778   -0.6249    0.8174 H       1  UNL1        0.0230
     32 H           6.9226    0.6119    0.0147 H       1  UNL1        0.0230
     33 H           7.6139   -0.5360    1.2433 H       1  UNL1        0.0230
     34 H           6.7046   -2.3985   -0.4465 H       1  UNL1        0.0263
     35 H           8.3185   -1.6848   -0.5810 H       1  UNL1        0.0263
     36 H           7.6239   -0.0474   -2.2896 H       1  UNL1        0.0265
     37 H           7.5614   -1.7304   -2.7723 H       1  UNL1        0.0265
     38 H           5.8540   -0.7824   -3.8728 H       1  UNL1        0.0268
     39 H           5.1257   -1.7782   -2.6362 H       1  UNL1        0.0268
     40 H           3.8719    0.2224   -3.2124 H       1  UNL1        0.0313
     41 H           5.1903    1.3112   -2.6916 H       1  UNL1        0.0313
     42 H           5.0328    2.1824   -0.5112 H       1  UNL1        0.0657
     43 H           3.2433    3.2537    2.1475 H       1  UNL1        0.2921
     44 H           2.8839   -1.3357   -1.4091 H       1  UNL1        0.0657
     45 H          -0.5392   -2.8430    2.3957 H       1  UNL1        0.0268
     46 H          -0.2023   -1.6585    3.6944 H       1  UNL1        0.0268
     47 H           1.1288   -2.6455    2.9679 H       1  UNL1        0.0268
     48 H          -0.6335   -0.3277   -0.0018 H       1  UNL1        0.0304
     49 H          -0.9462   -2.0583    0.3570 H       1  UNL1        0.0304
     50 H          -1.9449   -1.3631    2.5894 H       1  UNL1        0.0267
     51 H          -1.7892    0.3232    2.1316 H       1  UNL1        0.0267
     52 H          -4.0694   -0.3723    1.9908 H       1  UNL1        0.0274
     53 H          -3.7336   -1.6823    0.7851 H       1  UNL1        0.0274
     54 H          -2.0618    0.7493   -1.4419 H       1  UNL1        0.0238
     55 H          -2.4054   -1.0525   -1.2818 H       1  UNL1        0.0238
     56 H          -3.5204   -0.0022   -2.1336 H       1  UNL1        0.0238
     57 H          -3.4463    1.8788    1.4713 H       1  UNL1        0.0238
     58 H          -3.8834    2.4307   -0.1741 H       1  UNL1        0.0238
     59 H          -2.2067    1.9215    0.1414 H       1  UNL1        0.0238
     60 H          -5.8566   -0.9769    1.0031 H       1  UNL1        0.0621
     61 H          -8.1893   -0.6950    0.1654 H       1  UNL1        0.0620
     62 H          -9.4012    1.8680   -1.5491 H       1  UNL1        0.0278
     63 H          -8.9368    0.9121   -2.9855 H       1  UNL1        0.0278
     64 H          -9.7075    0.0426   -1.5877 H       1  UNL1        0.0278
     65 H          -6.7890    2.0270   -2.7767 H       1  UNL1        0.0620
     66 H          -4.5461    1.7596   -1.9769 H       1  UNL1        0.0621
     67 H           0.2418    1.0697    1.5855 H       1  UNL1        0.0307
     68 H          -0.0061    0.3908    3.2815 H       1  UNL1        0.0307
     69 H           2.0413    1.6272    3.0521 H       1  UNL1        0.0317
     70 H           2.4188   -0.1392    3.3707 H       1  UNL1        0.0317
@<TRIPOS>BOND
     1     1     2    1
     2     2     3    1
     3     3     4    1
     4     4     5    1
     5     5     6    1
     6     6     7   ar
     7     7     8   ar
     8     8     9    1
     9     8    10   ar
    10    10    11   ar
    11    11    12   ar
    12    11    13    1
    13    13    14    1
    14    14    15    1
    15    14    16    1
    16    16    17    1
    17    17    18    1
    18    18    19    1
    19    19    20    1
    20    19    21    1
    21    19    22    1
    22    22    23   ar
    23    23    24   ar
    24    24    25   ar
    25    25    26    1
    26    25    27   ar
    27    27    28   ar
    28    14    29    1
    29    29    30    1
    30    12     6   ar
    31    28    22   ar
    32    30    10    1
    33     1    31    1
    34     1    32    1
    35     1    33    1
    36     2    34    1
    37     2    35    1
    38     3    36    1
    39     3    37    1
    40     4    38    1
    41     4    39    1
    42     5    40    1
    43     5    41    1
    44     7    42    1
    45     9    43    1
    46    12    44    1
    47    15    45    1
    48    15    46    1
    49    15    47    1
    50    16    48    1
    51    16    49    1
    52    17    50    1
    53    17    51    1
    54    18    52    1
    55    18    53    1
    56    20    54    1
    57    20    55    1
    58    20    56    1
    59    21    57    1
    60    21    58    1
    61    21    59    1
    62    23    60    1
    63    24    61    1
    64    26    62    1
    65    26    63    1
    66    26    64    1
    67    27    65    1
    68    28    66    1
    69    29    67    1
    70    29    68    1
    71    30    69    1
    72    30    70    1
@<TRIPOS>MOLECULE
171358627
 30 32 0 0 0
SMALL
GASTEIGER

@<TRIPOS>ATOM
      1 C          -3.4898    1.6253    0.1113 C.3     1  UNL1       -0.0454
      2 C          -3.5358    0.3813    0.9881 C.3     1  UNL1        0.0427
      3 N          -3.6057   -0.7675    0.1102 N.ar    1  UNL1       -0.2248
      4 N          -4.7587   -1.2929   -0.3153 N.ar    1  UNL1       -0.0436
      5 N          -4.4517   -2.3137   -1.0878 N.ar    1  UNL1       -0.0227
      6 N          -3.1250   -2.4319   -1.1498 N.ar    1  UNL1       -0.1074
      7 C          -2.5886   -1.4718   -0.4056 C.ar    1  UNL1        0.1938
      8 C          -1.1719   -1.2397   -0.1984 C.ar    1  UNL1        0.1210
      9 S          -0.2196    0.1293   -0.6911 S.2     1  UNL1       -0.0602
     10 C           1.3918   -0.5449    0.0332 C.ar    1  UNL1        0.1129
     11 C           2.6062    0.2813   -0.1161 C.ar    1  UNL1        0.0100
     12 C           3.7610   -0.2070    0.4057 C.ar    1  UNL1       -0.0519
     13 C           4.9636    0.4870    0.3226 C.ar    1  UNL1       -0.0584
     14 C           4.9515    1.6997   -0.3121 C.ar    1  UNL1       -0.0264
     15 C           3.8059    2.2286   -0.8529 C.ar    1  UNL1        0.1240
     16 F           3.7700    3.4319   -1.4882 F       1  UNL1       -0.2055
     17 C           2.6296    1.4979   -0.7446 C.ar    1  UNL1       -0.0168
     18 N           0.9775   -1.5610    0.4667 N.ar    1  UNL1       -0.2047
     19 C          -0.2371   -2.0292    0.4294 C.ar    1  UNL1        0.2313
     20 O          -0.6297   -3.2680    0.9839 O.3     1  UNL1       -0.4915
     21 H          -4.2068    2.3428    0.5553 H       1  UNL1        0.0247
     22 H          -2.4578    1.9707    0.0850 H       1  UNL1        0.0247
     23 H          -3.8667    1.3979   -0.9164 H       1  UNL1        0.0247
     24 H          -4.4113    0.3611    1.6519 H       1  UNL1        0.0507
     25 H          -2.6312    0.3348    1.6348 H       1  UNL1        0.0507
     26 H           3.7525   -1.1607    0.9007 H       1  UNL1        0.0624
     27 H           5.8639    0.0809    0.7426 H       1  UNL1        0.0619
     28 H           5.8731    2.2673   -0.3945 H       1  UNL1        0.0646
     29 H           1.6947    1.8643   -1.1519 H       1  UNL1        0.0653
     30 H          -0.6538   -4.0936    0.4041 H       1  UNL1        0.2938
@<TRIPOS>BOND
     1     1     2    1
     2     2     3    1
     3     3     4   ar
     4     4     5   ar
     5     5     6   ar
     6     6     7   ar
     7     7     8    1
     8     8     9   ar
     9     9    10   ar
    10    10    11    1
    11    11    12   ar
    12    12    13   ar
    13    13    14   ar
    14    14    15   ar
    15    15    16    1
    16    15    17   ar
    17    10    18   ar
    18    18    19   ar
    19    19    20    1
    20     7     3   ar
    21    19     8   ar
    22    17    11   ar
    23     1    21    1
    24     1    22    1
    25     1    23    1
    26     2    24    1
    27     2    25    1
    28    12    26    1
    29    13    27    1
    30    14    28    1
    31    17    29    1
    32    20    30    1
@<TRIPOS>MOLECULE
171354803
 29 30 0 0 0
SMALL
GASTEIGER

@<TRIPOS>ATOM
      1 C          -5.2459    0.9063    0.5870 C.3     1  UNL1       -0.0495
      2 C          -4.9219   -0.4204   -0.0400 C.3     1  UNL1        0.0091
      3 N          -3.5336   -0.4284   -0.4723 N.am    1  UNL1       -0.3110
      4 C          -2.4751   -0.2390    0.4458 C.2     1  UNL1        0.2559
      5 O          -2.7902   -0.0645    1.6466 O.2     1  UNL1       -0.2694
      6 C          -1.0749   -0.2455    0.0199 C.ar    1  UNL1        0.1370
      7 S           0.3175   -0.0136    1.1178 S.2     1  UNL1       -0.0588
      8 C           1.5467   -0.1828   -0.3003 C.ar    1  UNL1        0.1128
      9 C           3.0266   -0.0622    0.0624 C.ar    1  UNL1        0.0073
     10 C           3.3903    0.1558    1.3542 C.ar    1  UNL1       -0.0520
     11 C           4.7600    0.2563    1.6196 C.ar    1  UNL1       -0.0611
     12 C           5.6897    0.1398    0.6203 C.ar    1  UNL1       -0.0617
     13 C           5.3121   -0.0821   -0.6923 C.ar    1  UNL1       -0.0611
     14 C           3.9536   -0.1781   -0.9319 C.ar    1  UNL1       -0.0520
     15 N           0.8501   -0.3482   -1.1651 N.ar    1  UNL1       -0.2047
     16 C          -0.4762   -0.4056   -1.1672 C.ar    1  UNL1        0.2327
     17 O          -1.1878   -0.6246   -2.3699 O.3     1  UNL1       -0.4915
     18 H          -4.6841    1.6868    0.0036 H       1  UNL1        0.0245
     19 H          -4.9229    0.8922    1.6358 H       1  UNL1        0.0245
     20 H          -6.3272    1.1387    0.4741 H       1  UNL1        0.0245
     21 H          -5.5687   -0.5867   -0.9036 H       1  UNL1        0.0459
     22 H          -5.0804   -1.2605    0.6667 H       1  UNL1        0.0459
     23 H          -3.3090   -0.5756   -1.4744 H       1  UNL1        0.1490
     24 H           2.7018    0.2539    2.1694 H       1  UNL1        0.0624
     25 H           5.1004    0.4310    2.6410 H       1  UNL1        0.0618
     26 H           6.7681    0.2172    0.8179 H       1  UNL1        0.0618
     27 H           6.0475   -0.1730   -1.4745 H       1  UNL1        0.0618
     28 H           3.6204   -0.3506   -1.9416 H       1  UNL1        0.0624
     29 H          -1.4865    0.1635   -2.9503 H       1  UNL1        0.2938
@<TRIPOS>BOND
     1     1     2    1
     2     2     3    1
     3     3     4   am
     4     4     5    2
     5     4     6    1
     6     6     7   ar
     7     7     8   ar
     8     8     9    1
     9     9    10   ar
    10    10    11   ar
    11    11    12   ar
    12    12    13   ar
    13    13    14   ar
    14     8    15   ar
    15    15    16   ar
    16    16    17    1
    17    16     6   ar
    18    14     9   ar
    19     1    18    1
    20     1    19    1
    21     1    20    1
    22     2    21    1
    23     2    22    1
    24     3    23    1
    25    10    24    1
    26    11    25    1
    27    12    26    1
    28    13    27    1
    29    14    28    1
    30    17    29    1
@<TRIPOS>MOLECULE
171353790
 32 33 0 0 0
SMALL
GASTEIGER

@<TRIPOS>ATOM
      1 C           5.5658    0.5120    0.4831 C.3     1  UNL1       -0.0306
      2 C           4.9271    0.9134   -0.8196 C.3     1  UNL1        0.0900
      3 O           3.5176    0.9942   -0.7310 O.3     1  UNL1       -0.4614
      4 C           2.7987   -0.1364   -0.3767 C.2     1  UNL1        0.3427
      5 O           3.4368   -1.1925   -0.1483 O.2     1  UNL1       -0.2448
      6 C           1.3436   -0.1230   -0.2662 C.ar    1  UNL1        0.1003
      7 C           0.6405    1.0438   -0.5198 C.ar    1  UNL1       -0.0436
      8 C          -0.7346    1.0690   -0.4173 C.ar    1  UNL1       -0.0530
      9 C          -1.4058   -0.0901   -0.0568 C.ar    1  UNL1       -0.0143
     10 C          -2.8786   -0.0657    0.0544 C.ar    1  UNL1       -0.0151
     11 C          -3.6518    0.7496   -0.7443 C.ar    1  UNL1       -0.0539
     12 C          -5.0259    0.7730   -0.6366 C.ar    1  UNL1       -0.0585
     13 C          -5.6850   -0.0218    0.2780 C.ar    1  UNL1       -0.0264
     14 C          -4.9208   -0.8456    1.0860 C.ar    1  UNL1        0.1240
     15 F          -5.5820   -1.6250    1.9852 F       1  UNL1       -0.2055
     16 C          -3.5458   -0.8612    0.9701 C.ar    1  UNL1       -0.0187
     17 C          -0.7075   -1.2601    0.1979 C.ar    1  UNL1       -0.0116
     18 C           0.6719   -1.2668    0.0902 C.ar    1  UNL1        0.1314
     19 O           1.4221   -2.4122    0.3340 O.3     1  UNL1       -0.5059
     20 H           6.5522    1.0192    0.5426 H       1  UNL1        0.0262
     21 H           4.9839    0.8351    1.3698 H       1  UNL1        0.0262
     22 H           5.7939   -0.5809    0.5214 H       1  UNL1        0.0262
     23 H           5.2726    0.2651   -1.6350 H       1  UNL1        0.0695
     24 H           5.2910    1.9429   -1.0698 H       1  UNL1        0.0695
     25 H           1.1958    1.9356   -0.8008 H       1  UNL1        0.0627
     26 H          -1.2956    1.9733   -0.6125 H       1  UNL1        0.0624
     27 H          -3.1274    1.3770   -1.4663 H       1  UNL1        0.0624
     28 H          -5.6115    1.4210   -1.2742 H       1  UNL1        0.0619
     29 H          -6.7738    0.0031    0.3575 H       1  UNL1        0.0646
     30 H          -2.9791   -1.5062    1.6059 H       1  UNL1        0.0652
     31 H          -1.2463   -2.1395    0.4730 H       1  UNL1        0.0660
     32 H           1.7579   -2.7002    1.2271 H       1  UNL1        0.2922
@<TRIPOS>BOND
     1     1     2    1
     2     2     3    1
     3     3     4    1
     4     4     5    2
     5     4     6    1
     6     6     7   ar
     7     7     8   ar
     8     8     9   ar
     9     9    10    1
    10    10    11   ar
    11    11    12   ar
    12    12    13   ar
    13    13    14   ar
    14    14    15    1
    15    14    16   ar
    16     9    17   ar
    17    17    18   ar
    18    18    19    1
    19    18     6   ar
    20    16    10   ar
    21     1    20    1
    22     1    21    1
    23     1    22    1
    24     2    23    1
    25     2    24    1
    26     7    25    1
    27     8    26    1
    28    11    27    1
    29    12    28    1
    30    13    29    1
    31    16    30    1
    32    17    31    1
    33    19    32    1
@<TRIPOS>MOLECULE
9899456
 27 28 0 0 0
SMALL
GASTEIGER

@<TRIPOS>ATOM
      1 C           5.4271    0.8350   -0.2384 C.3     1  UNL1       -0.0306
      2 C           4.6928    0.1179   -1.3241 C.3     1  UNL1        0.0900
      3 O           3.2746    0.1386   -1.1401 O.3     1  UNL1       -0.4610
      4 C           2.7362   -0.4214   -0.0028 C.2     1  UNL1        0.3474
      5 O           3.4705   -0.9350    0.8478 O.2     1  UNL1       -0.2443
      6 C           1.3050   -0.4421    0.2603 C.ar    1  UNL1        0.1161
      7 C           0.6264   -0.9811    1.3778 C.ar    1  UNL1        0.0495
      8 N          -0.6515   -0.8705    1.3695 N.ar    1  UNL1       -0.2465
      9 C          -1.3200   -0.3157    0.4321 C.ar    1  UNL1        0.1090
     10 C          -2.7497   -0.0823    0.2168 C.ar    1  UNL1        0.0071
     11 C          -3.6069   -0.5186    1.1695 C.ar    1  UNL1       -0.0521
     12 C          -4.9921   -0.3302    1.0316 C.ar    1  UNL1       -0.0611
     13 C          -5.4786    0.3080   -0.0906 C.ar    1  UNL1       -0.0617
     14 C          -4.5884    0.7461   -1.0518 C.ar    1  UNL1       -0.0611
     15 C          -3.2041    0.5570   -0.9125 C.ar    1  UNL1       -0.0521
     16 S          -0.0300    0.1712   -0.6831 S.2     1  UNL1       -0.0607
     17 H           6.3346    0.2770    0.1169 H       1  UNL1        0.0262
     18 H           5.8290    1.8283   -0.5779 H       1  UNL1        0.0262
     19 H           4.7610    1.0011    0.6220 H       1  UNL1        0.0262
     20 H           4.9664   -0.9761   -1.2542 H       1  UNL1        0.0695
     21 H           4.9659    0.4170   -2.3485 H       1  UNL1        0.0695
     22 H           1.2078   -1.4586    2.1837 H       1  UNL1        0.0843
     23 H          -3.3008   -1.0252    2.0728 H       1  UNL1        0.0624
     24 H          -5.6967   -0.6682    1.7761 H       1  UNL1        0.0618
     25 H          -6.5279    0.4867   -0.2625 H       1  UNL1        0.0618
     26 H          -4.9475    1.2508   -1.9433 H       1  UNL1        0.0618
     27 H          -2.5030    0.8901   -1.6471 H       1  UNL1        0.0624
@<TRIPOS>BOND
     1     1     2    1
     2     2     3    1
     3     3     4    1
     4     4     5    2
     5     4     6    1
     6     6     7   ar
     7     7     8   ar
     8     8     9   ar
     9     9    10    1
    10    10    11   ar
    11    11    12   ar
    12    12    13   ar
    13    13    14   ar
    14    14    15   ar
    15     9    16   ar
    16    16     6   ar
    17    15    10   ar
    18     1    17    1
    19     1    18    1
    20     1    19    1
    21     2    20    1
    22     2    21    1
    23     7    22    1
    24    11    23    1
    25    12    24    1
    26    13    25    1
    27    14    26    1
    28    15    27    1
@<TRIPOS>MOLECULE
136114056
 28 29 0 0 0
SMALL
GASTEIGER

@<TRIPOS>ATOM
      1 C           5.0409    0.8730    0.2652 C.3     1  UNL1       -0.0306
      2 C           4.6960   -0.5686   -0.0348 C.3     1  UNL1        0.0901
      3 O           3.3731   -0.6693   -0.5261 O.3     1  UNL1       -0.4592
      4 C           2.3107   -0.2422    0.2529 C.2     1  UNL1        0.3804
      5 O           2.5369    0.2334    1.3961 O.2     1  UNL1       -0.2413
      6 C           0.9481   -0.3417   -0.2434 C.ar    1  UNL1        0.2749
      7 O          -0.1359    0.0306    0.4048 O.2     1  UNL1       -0.4249
      8 C          -1.2011   -0.1958   -0.3267 C.ar    1  UNL1        0.2314
      9 C          -2.5741    0.0940    0.0745 C.ar    1  UNL1        0.0371
     10 C          -3.6301   -0.1834   -0.7730 C.ar    1  UNL1       -0.0481
     11 C          -4.9376    0.0657   -0.4531 C.ar    1  UNL1       -0.0427
     12 C          -5.2528    0.6213    0.7687 C.ar    1  UNL1        0.0410
     13 CL         -6.9259    0.9492    1.1991 Cl      1  UNL1       -0.0835
     14 C          -4.2146    0.9064    1.6304 C.ar    1  UNL1       -0.0427
     15 C          -2.8880    0.6489    1.2949 C.ar    1  UNL1       -0.0481
     16 N          -0.7747   -0.7328   -1.4841 N.ar    1  UNL1       -0.1738
     17 C           0.5705   -0.8426   -1.4746 C.ar    1  UNL1        0.2667
     18 O           1.4201   -1.3381   -2.4535 O.3     1  UNL1       -0.4897
     19 H           4.7000    1.1175    1.3029 H       1  UNL1        0.0262
     20 H           4.5164    1.5771   -0.4103 H       1  UNL1        0.0262
     21 H           6.1481    1.0077    0.1947 H       1  UNL1        0.0262
     22 H           5.4072   -0.9125   -0.8136 H       1  UNL1        0.0695
     23 H           4.7952   -1.2149    0.8487 H       1  UNL1        0.0695
     24 H          -3.3667   -0.6260   -1.7439 H       1  UNL1        0.0626
     25 H          -5.7585   -0.1529   -1.1186 H       1  UNL1        0.0632
     26 H          -4.4530    1.3385    2.5819 H       1  UNL1        0.0632
     27 H          -2.0745    0.8728    1.9712 H       1  UNL1        0.0626
     28 H           1.7239   -2.3153   -2.3316 H       1  UNL1        0.2938
@<TRIPOS>BOND
     1     1     2    1
     2     2     3    1
     3     3     4    1
     4     4     5    2
     5     4     6    1
     6     6     7   ar
     7     7     8   ar
     8     8     9    1
     9     9    10   ar
    10    10    11   ar
    11    11    12   ar
    12    12    13    1
    13    12    14   ar
    14    14    15   ar
    15     8    16   ar
    16    16    17   ar
    17    17    18    1
    18    17     6   ar
    19    15     9   ar
    20     1    19    1
    21     1    20    1
    22     1    21    1
    23     2    22    1
    24     2    23    1
    25    10    24    1
    26    11    25    1
    27    14    26    1
    28    15    27    1
    29    18    28    1
@<TRIPOS>MOLECULE
13114379
 31 32 0 0 0
SMALL
GASTEIGER

@<TRIPOS>ATOM
      1 C          -5.1249    0.7241    1.4178 C.3     1  UNL1       -0.0306
      2 C          -4.7918    0.4000   -0.0142 C.3     1  UNL1        0.0900
      3 O          -3.4544   -0.0319   -0.1691 O.3     1  UNL1       -0.4610
      4 C          -2.3660    0.7398    0.1660 C.2     1  UNL1        0.3478
      5 O          -2.5887    1.8889    0.6338 O.2     1  UNL1       -0.2443
      6 C          -0.9938    0.3206    0.0168 C.ar    1  UNL1        0.1216
      7 S           0.4659    1.2139    0.4059 S.2     1  UNL1       -0.0604
      8 C           1.6281   -0.1253   -0.1215 C.ar    1  UNL1        0.1094
      9 C           3.0726    0.0543   -0.0245 C.ar    1  UNL1        0.0071
     10 C           3.5732    1.2260    0.4617 C.ar    1  UNL1       -0.0520
     11 C           4.9636    1.4047    0.5567 C.ar    1  UNL1       -0.0611
     12 C           5.7995    0.3645    0.1455 C.ar    1  UNL1       -0.0617
     13 C           5.2967   -0.8210   -0.3465 C.ar    1  UNL1       -0.0611
     14 C           3.9236   -0.9430   -0.4182 C.ar    1  UNL1       -0.0520
     15 N           0.8244   -0.9617   -0.4765 N.ar    1  UNL1       -0.2408
     16 CA         -0.4736   -0.8649   -0.4586 C.ar    1  UNL1        0.0885
     17 C          -1.4132   -1.9559   -0.9169 C.3     1  UNL1        0.0875
     18 O          -1.9014   -1.5898   -2.1575 O.3     1  UNL1       -0.3889
     19 H          -4.8375    1.7477    1.7063 H       1  UNL1        0.0262
     20 H          -4.6797   -0.0589    2.0515 H       1  UNL1        0.0262
     21 H          -6.2289    0.6488    1.5183 H       1  UNL1        0.0262
     22 H          -5.0369    1.2467   -0.6976 H       1  UNL1        0.0695
     23 H          -5.4415   -0.4468   -0.3208 H       1  UNL1        0.0695
     24 H           2.9837    2.0688    0.7954 H       1  UNL1        0.0624
     25 H           5.3900    2.3221    0.9376 H       1  UNL1        0.0618
     26 H           6.8873    0.5082    0.2213 H       1  UNL1        0.0618
     27 H           5.9725   -1.6050   -0.6556 H       1  UNL1        0.0618
     28 H           3.5198   -1.8646   -0.8004 H       1  UNL1        0.0624
     29 H1         -0.9109   -2.9351   -0.9085 H       1  UNL1        0.0623
     30 H2         -2.2790   -2.0434   -0.2324 H       1  UNL1        0.0623
     31 H          -1.7787   -0.6309   -2.3161 H       1  UNL1        0.2099
@<TRIPOS>BOND
     1     1     2    1
     2     2     3    1
     3     3     4    1
     4     4     5    2
     5     4     6    1
     6     6     7   ar
     7     7     8   ar
     8     8     9    1
     9     9    10   ar
    10    10    11   ar
    11    11    12   ar
    12    12    13   ar
    13    13    14   ar
    14     8    15   ar
    15    15    16   ar
    16    16    17    1
    17    17    18    1
    18    16     6   ar
    19    14     9   ar
    20     1    19    1
    21     1    20    1
    22     1    21    1
    23     2    22    1
    24     2    23    1
    25    10    24    1
    26    11    25    1
    27    12    26    1
    28    13    27    1
    29    14    28    1
    30    17    29    1
    31    17    30    1
    32    18    31    1
@<TRIPOS>MOLECULE
171352662
 29 30 0 0 0
SMALL
GASTEIGER

@<TRIPOS>ATOM
      1 C          -5.2854   -0.3710   -0.9146 C.3     1  UNL1       -0.0306
      2 C          -4.9024    0.1527    0.4682 C.3     1  UNL1        0.0900
      3 O          -3.5336    0.5076    0.4807 O.3     1  UNL1       -0.4610
      4 C          -2.5662   -0.4285    0.2130 C.2     1  UNL1        0.3493
      5 O          -2.9569   -1.5969   -0.0391 O.2     1  UNL1       -0.2442
      6 C          -1.1322   -0.0895    0.2185 C.ar    1  UNL1        0.1375
      7 S           0.2261   -1.1817   -0.1055 S.2     1  UNL1       -0.0588
      8 C           1.5092    0.1296    0.1340 C.ar    1  UNL1        0.1111
      9 C           2.9380   -0.2255   -0.0219 C.ar    1  UNL1        0.0072
     10 C           3.3659   -1.4918   -0.3388 C.ar    1  UNL1       -0.0520
     11 C           4.7032   -1.7665   -0.4714 C.ar    1  UNL1       -0.0611
     12 C           5.6165   -0.7566   -0.2830 C.ar    1  UNL1       -0.0617
     13 C           5.1847    0.4939    0.0304 C.ar    1  UNL1       -0.0611
     14 C           3.8329    0.7733    0.1648 C.ar    1  UNL1       -0.0520
     15 N           0.8121    1.0668    0.3881 N.ar    1  UNL1       -0.2239
     16 C          -0.4877    1.1022    0.4630 C.ar    1  UNL1        0.1383
     17 N          -1.2717    2.2824    0.7780 N.pl3   1  UNL1       -0.3420
     18 H          -5.7342   -1.3660   -0.8812 H       1  UNL1        0.0262
     19 H          -6.0323    0.3219   -1.3552 H       1  UNL1        0.0262
     20 H          -4.4115   -0.3533   -1.5968 H       1  UNL1        0.0262
     21 H          -5.4809    1.0478    0.7104 H       1  UNL1        0.0695
     22 H          -5.0688   -0.6860    1.1823 H       1  UNL1        0.0695
     23 H           2.6525   -2.3079   -0.4924 H       1  UNL1        0.0624
     24 H           4.9941   -2.7813   -0.7227 H       1  UNL1        0.0618
     25 H           6.6814   -1.0022   -0.3948 H       1  UNL1        0.0618
     26 H           5.9074    1.2803    0.1765 H       1  UNL1        0.0618
     27 H           3.5757    1.7918    0.4152 H       1  UNL1        0.0624
     28 H          -0.9380    2.9958    1.4606 H       1  UNL1        0.1437
     29 H          -2.1979    2.4589    0.3323 H       1  UNL1        0.1437
@<TRIPOS>BOND
     1     1     2    1
     2     2     3    1
     3     3     4    1
     4     4     5    2
     5     4     6    1
     6     6     7   ar
     7     7     8   ar
     8     8     9    1
     9     9    10   ar
    10    10    11   ar
    11    11    12   ar
    12    12    13   ar
    13    13    14   ar
    14     8    15   ar
    15    15    16   ar
    16    16    17    1
    17    16     6   ar
    18    14     9   ar
    19     1    18    1
    20     1    19    1
    21     1    20    1
    22     2    21    1
    23     2    22    1
    24    10    23    1
    25    11    24    1
    26    12    25    1
    27    13    26    1
    28    14    27    1
    29    17    28    1
    30    17    29    1
@<TRIPOS>MOLECULE
2744244
 31 32 0 0 0
SMALL
GASTEIGER

@<TRIPOS>ATOM
      1 C          -5.3463    0.3287    1.5339 C.3     1  UNL1       -0.0306
      2 C          -4.8270   -0.4537    0.3792 C.3     1  UNL1        0.0900
      3 O          -3.4739   -0.3127    0.1195 O.3     1  UNL1       -0.4610
      4 C          -2.4520   -0.6252    0.9991 C.2     1  UNL1        0.3512
      5 O          -2.8075   -1.0717    2.1185 O.2     1  UNL1       -0.2442
      6 C          -1.0700   -0.4408    0.6300 C.ar    1  UNL1        0.1594
      7 S           0.3993   -0.7243    1.4690 S.2     1  UNL1       -0.0569
      8 C           1.5257   -0.2238    0.2690 C.ar    1  UNL1        0.1129
      9 C           2.9696   -0.1813    0.2690 C.ar    1  UNL1        0.0073
     10 C           3.6208    0.2710   -0.8432 C.ar    1  UNL1       -0.0520
     11 C           5.0007    0.3338   -0.9000 C.ar    1  UNL1       -0.0611
     12 C           5.7234   -0.0774    0.2107 C.ar    1  UNL1       -0.0617
     13 C           5.1008   -0.5312    1.3292 C.ar    1  UNL1       -0.0611
     14 C           3.7007   -0.5818    1.3532 C.ar    1  UNL1       -0.0520
     15 N           0.6866    0.1478   -0.7489 N.ar    1  UNL1       -0.2045
     16 C          -0.5696    0.0636   -0.6276 C.ar    1  UNL1        0.2368
     17 O          -1.5344    0.4262   -1.6317 O.3     1  UNL1       -0.4787
     18 C          -1.0356    0.9161   -2.8520 C.3     1  UNL1        0.0804
     19 H          -4.9269    1.3637    1.5888 H       1  UNL1        0.0262
     20 H          -5.2959   -0.1992    2.5082 H       1  UNL1        0.0262
     21 H          -6.4497    0.4873    1.3517 H       1  UNL1        0.0262
     22 H          -5.3813   -0.1138   -0.5404 H       1  UNL1        0.0695
     23 H          -5.0961   -1.5096    0.5161 H       1  UNL1        0.0695
     24 H           3.0942    0.6051   -1.7411 H       1  UNL1        0.0624
     25 H           5.4920    0.6894   -1.7761 H       1  UNL1        0.0618
     26 H           6.8038   -0.0305    0.1722 H       1  UNL1        0.0618
     27 H           5.6766   -0.8443    2.1770 H       1  UNL1        0.0618
     28 H           3.2374   -0.9456    2.2523 H       1  UNL1        0.0624
     29 H          -1.6078    0.5010   -3.7261 H       1  UNL1        0.0660
     30 H           0.0578    0.7065   -2.9713 H       1  UNL1        0.0660
     31 H          -1.2154    2.0277   -2.8882 H       1  UNL1        0.0660
@<TRIPOS>BOND
     1     1     2    1
     2     2     3    1
     3     3     4    1
     4     4     5    2
     5     4     6    1
     6     6     7   ar
     7     7     8   ar
     8     8     9    1
     9     9    10   ar
    10    10    11   ar
    11    11    12   ar
    12    12    13   ar
    13    13    14   ar
    14     8    15   ar
    15    15    16   ar
    16    16    17    1
    17    17    18    1
    18    16     6   ar
    19    14     9   ar
    20     1    19    1
    21     1    20    1
    22     1    21    1
    23     2    22    1
    24     2    23    1
    25    10    24    1
    26    11    25    1
    27    12    26    1
    28    13    27    1
    29    14    28    1
    30    18    29    1
    31    18    30    1
    32    18    31    1
@<TRIPOS>MOLECULE
51345606
 41 43 0 0 0
SMALL
GASTEIGER

@<TRIPOS>ATOM
      1 C          -2.3423    4.1161   -0.4639 C.3     1  UNL1        0.0817
      2 O          -1.3641    3.1341   -0.1983 O.3     1  UNL1       -0.4666
      3 C          -1.7263    1.8842    0.3798 C.2     1  UNL1        0.3279
      4 O          -2.9304    1.7677    0.6088 O.2     1  UNL1       -0.2487
      5 C          -0.6255    0.9710    0.5979 C.3     1  UNL1        0.1273
      6 C           0.4327    0.9824   -0.5178 C.3     1  UNL1        0.0037
      7 C           1.5549    0.1554    0.0399 C.ar    1  UNL1       -0.0153
      8 C           1.4435   -0.6917    1.1045 C.ar    1  UNL1        0.0378
      9 N           2.6848   -1.2363    1.2764 N.ar    1  UNL1       -0.3564
     10 C           3.5407   -0.7543    0.3613 C.ar    1  UNL1        0.0470
     11 C           4.8867   -0.9734    0.0999 C.ar    1  UNL1       -0.0378
     12 C           5.5135   -0.3172   -0.9360 C.ar    1  UNL1       -0.0598
     13 C           4.8528    0.5752   -1.7539 C.ar    1  UNL1       -0.0611
     14 C           3.5173    0.7799   -1.4793 C.ar    1  UNL1       -0.0523
     15 C           2.8705    0.1346   -0.4487 C.ar    1  UNL1        0.0032
     16 C           0.1753   -0.9293    1.8849 C.3     1  UNL1        0.0559
     17 N          -0.8809   -0.3692    0.9890 N.am    1  UNL1       -0.2819
     18 C          -1.9155   -1.2442    0.6408 C.2     1  UNL1        0.2178
     19 O          -1.8411   -2.4423    1.1282 O.2     1  UNL1       -0.2755
     20 C          -3.0880   -1.0069   -0.2033 C.3     1  UNL1        0.0365
     21 C          -3.6552   -2.3280   -0.7482 C.3     1  UNL1        0.0014
     22 N          -4.0590   -3.2120    0.3013 N.3     1  UNL1       -0.3295
     23 H          -2.4508    4.3212   -1.5598 H       1  UNL1        0.0661
     24 H          -3.3317    3.7847   -0.0622 H       1  UNL1        0.0661
     25 H          -2.0749    5.0727    0.0314 H       1  UNL1        0.0661
     26 H          -0.0327    1.4406    1.4735 H       1  UNL1        0.0620
     27 H           0.7374    2.0404   -0.6326 H       1  UNL1        0.0337
     28 H           0.0493    0.6089   -1.4651 H       1  UNL1        0.0337
     29 H           2.9357   -1.9310    2.0159 H       1  UNL1        0.1656
     30 H           5.3983   -1.6767    0.7480 H       1  UNL1        0.0638
     31 H           6.5692   -0.5298   -1.0918 H       1  UNL1        0.0618
     32 H           5.3802    1.0709   -2.5574 H       1  UNL1        0.0618
     33 H           2.9607    1.4695   -2.0933 H       1  UNL1        0.0624
     34 H           0.0054   -1.9954    2.0857 H       1  UNL1        0.0529
     35 H           0.1635   -0.3419    2.8135 H       1  UNL1        0.0529
     36 H          -3.9670   -0.6039    0.3894 H       1  UNL1        0.0371
     37 H          -2.8905   -0.3789   -1.0818 H       1  UNL1        0.0371
     38 H          -2.8554   -2.7877   -1.3828 H       1  UNL1        0.0426
     39 H          -4.4748   -2.0473   -1.4414 H       1  UNL1        0.0426
     40 H          -4.8866   -3.7565   -0.0485 H       1  UNL1        0.1182
     41 H          -4.2796   -2.7559    1.1952 H       1  UNL1        0.1182
@<TRIPOS>BOND
     1     1     2    1
     2     2     3    1
     3     3     4    2
     4     3     5    1
     5     5     6    1
     6     6     7    1
     7     7     8   ar
     8     8     9   ar
     9     9    10   ar
    10    10    11   ar
    11    11    12   ar
    12    12    13   ar
    13    13    14   ar
    14    14    15   ar
    15     8    16    1
    16    16    17    1
    17    17    18   am
    18    18    19    2
    19    18    20    1
    20    20    21    1
    21    21    22    1
    22    17     5    1
    23    15     7   ar
    24    15    10   ar
    25     1    23    1
    26     1    24    1
    27     1    25    1
    28     5    26    1
    29     6    27    1
    30     6    28    1
    31     9    29    1
    32    11    30    1
    33    12    31    1
    34    13    32    1
    35    14    33    1
    36    16    34    1
    37    16    35    1
    38    20    36    1
    39    20    37    1
    40    21    38    1
    41    21    39    1
    42    22    40    1
    43    22    41    1
@<TRIPOS>MOLECULE
145711014
 25 26 0 0 0
SMALL
GASTEIGER

@<TRIPOS>ATOM
      1 C           5.2882    0.4902    0.2929 C.3     1  UNL1        0.0820
      2 O           4.0821   -0.2503    0.1221 O.3     1  UNL1       -0.4633
      3 C           2.8840    0.4188    0.1684 C.2     1  UNL1        0.3617
      4 O           2.8646    1.6611    0.3583 O.2     1  UNL1       -0.2431
      5 C           1.5851   -0.3063   -0.0044 C.ar    1  UNL1        0.1973
      6 N           0.3850    0.2417    0.0231 N.ar    1  UNL1       -0.2289
      7 C          -0.6574   -0.2933   -0.1083 C.ar    1  UNL1        0.1125
      8 C          -2.1141    0.0370   -0.1264 C.ar    1  UNL1        0.0072
      9 C          -3.0898   -0.8999   -0.3164 C.ar    1  UNL1       -0.0520
     10 C          -4.4362   -0.5109   -0.3202 C.ar    1  UNL1       -0.0611
     11 C          -4.7890    0.7988   -0.1357 C.ar    1  UNL1       -0.0617
     12 C          -3.8031    1.7370    0.0550 C.ar    1  UNL1       -0.0611
     13 C          -2.4583    1.3295    0.0559 C.ar    1  UNL1       -0.0520
     14 S          -0.1479   -2.0467   -0.3536 S.2     1  UNL1       -0.0300
     15 C           1.6065   -1.6575   -0.2110 C.ar    1  UNL1        0.1905
     16 O           2.6545   -2.5709   -0.3018 O.3     1  UNL1       -0.4993
     17 H           5.5709    0.8894   -0.7105 H       1  UNL1        0.0661
     18 H           5.0715    1.3678    0.9373 H       1  UNL1        0.0661
     19 H           6.1001   -0.1175    0.6916 H       1  UNL1        0.0661
     20 H          -2.8147   -1.9338   -0.4622 H       1  UNL1        0.0624
     21 H          -5.1458   -1.3066   -0.4760 H       1  UNL1        0.0618
     22 H          -5.8446    1.0465   -0.1475 H       1  UNL1        0.0618
     23 H          -4.0986    2.7639    0.1987 H       1  UNL1        0.0618
     24 H          -1.7149    2.1016    0.2096 H       1  UNL1        0.0624
     25 H           3.0215   -2.9896    0.5620 H       1  UNL1        0.2928
@<TRIPOS>BOND
     1     1     2    1
     2     2     3    1
     3     3     4    2
     4     3     5    1
     5     5     6   ar
     6     6     7   ar
     7     7     8    1
     8     8     9   ar
     9     9    10   ar
    10    10    11   ar
    11    11    12   ar
    12    12    13   ar
    13     7    14   ar
    14    14    15   ar
    15    15    16    1
    16    15     5   ar
    17    13     8   ar
    18     1    17    1
    19     1    18    1
    20     1    19    1
    21     9    20    1
    22    10    21    1
    23    11    22    1
    24    12    23    1
    25    13    24    1
    26    16    25    1
@<TRIPOS>MOLECULE
50542847
 61 64 0 0 0
SMALL
GASTEIGER

@<TRIPOS>ATOM
      1 C           0.4257   -2.9844   -2.0595 C.3     1  UNL1        0.0790
      2 O           1.3775   -2.5077   -1.1254 O.3     1  UNL1       -0.4914
      3 C           0.8779   -1.8666    0.0194 C.ar    1  UNL1        0.1618
      4 C          -0.4929   -1.7289    0.1941 C.ar    1  UNL1       -0.0116
      5 C          -1.0199   -1.0968    1.3210 C.ar    1  UNL1       -0.0264
      6 C          -2.4869   -0.9615    1.5077 C.3     1  UNL1        0.0412
      7 N          -3.0268    0.2474    0.8613 N.am    1  UNL1       -0.2772
      8 C          -3.1302    1.4384    1.5721 C.2     1  UNL1        0.2544
      9 O          -2.6534    1.3901    2.7843 O.2     1  UNL1       -0.2694
     10 C          -3.6693    2.6825    1.2147 C.ar    1  UNL1        0.0741
     11 C          -3.5443    3.5892    0.1981 C.ar    1  UNL1       -0.0425
     12 C          -4.2492    4.7225    0.2006 C.ar    1  UNL1       -0.0540
     13 C          -5.1123    4.9923    1.2286 C.ar    1  UNL1       -0.0236
     14 S          -4.8776    3.4975    2.2517 S.2     1  UNL1       -0.0921
     15 C          -3.3523    0.1654   -0.5287 C.3     1  UNL1        0.1278
     16 C          -4.6716    0.5770   -0.9287 C.2     1  UNL1        0.2356
     17 N          -5.6499    0.9288    0.0534 N.am    1  UNL1       -0.3275
     18 O          -5.0245    0.6462   -2.1307 O.2     1  UNL1       -0.2736
     19 C          -2.2314    0.5950   -1.4308 C.ar    1  UNL1       -0.0182
     20 C          -1.1817    1.3399   -0.9836 C.ar    1  UNL1       -0.0563
     21 C          -0.1388    1.7258   -1.8331 C.ar    1  UNL1       -0.0614
     22 C          -0.1491    1.3569   -3.1581 C.ar    1  UNL1       -0.0617
     23 C          -1.2099    0.6014   -3.6203 C.ar    1  UNL1       -0.0614
     24 C          -2.2302    0.2318   -2.7620 C.ar    1  UNL1       -0.0563
     25 C          -0.1055   -0.6250    2.2377 C.ar    1  UNL1       -0.0534
     26 C           1.2739   -0.7616    2.0658 C.ar    1  UNL1       -0.0160
     27 C           1.7745   -1.3865    0.9484 C.ar    1  UNL1        0.1624
     28 O           3.1334   -1.5492    0.7219 O.3     1  UNL1       -0.4837
     29 C           4.1137   -1.0883    1.6276 C.3     1  UNL1        0.1148
     30 C           5.4411   -1.4013    1.1025 C.ar    1  UNL1       -0.0102
     31 C           6.0805   -0.5109    0.2696 C.ar    1  UNL1       -0.0526
     32 C           7.3502   -0.7790   -0.2327 C.ar    1  UNL1       -0.0261
     33 C           7.9710   -1.9499    0.1101 C.ar    1  UNL1        0.1234
     34 F           9.2009   -2.2423   -0.3548 F       1  UNL1       -0.2055
     35 C           7.3585   -2.8614    0.9409 C.ar    1  UNL1       -0.0261
     36 C           6.0787   -2.5642    1.4316 C.ar    1  UNL1       -0.0526
     37 H          -0.2703   -3.6479   -1.4914 H       1  UNL1        0.0660
     38 H           0.9043   -3.5093   -2.9012 H       1  UNL1        0.0660
     39 H          -0.1945   -2.1703   -2.4717 H       1  UNL1        0.0660
     40 H          -1.2008   -2.1026   -0.5337 H       1  UNL1        0.0658
     41 H          -2.9811   -1.8765    1.1017 H       1  UNL1        0.0514
     42 H          -2.7552   -0.9596    2.5912 H       1  UNL1        0.0514
     43 H          -2.8398    3.4004   -0.6756 H       1  UNL1        0.0630
     44 H          -4.1742    5.5035   -0.6238 H       1  UNL1        0.0623
     45 H          -5.7934    5.8222    1.4760 H       1  UNL1        0.0693
     46 H          -3.3179   -0.9948   -0.7311 H       1  UNL1        0.0648
     47 H          -5.8576    0.2448    0.8114 H       1  UNL1        0.1450
     48 H          -6.1416    1.8270    0.0184 H       1  UNL1        0.1450
     49 H          -1.1472    1.6447    0.0472 H       1  UNL1        0.0621
     50 H           0.6941    2.3178   -1.4829 H       1  UNL1        0.0618
     51 H           0.6632    1.6531   -3.8380 H       1  UNL1        0.0618
     52 H          -1.2033    0.3201   -4.6628 H       1  UNL1        0.0618
     53 H          -3.0665   -0.3610   -3.1115 H       1  UNL1        0.0621
     54 H          -0.4566   -0.1342    3.1335 H       1  UNL1        0.0622
     55 H           1.9966   -0.3962    2.7780 H       1  UNL1        0.0655
     56 H           3.9619   -1.6874    2.5619 H       1  UNL1        0.0748
     57 H           3.9885   -0.0197    1.9088 H       1  UNL1        0.0748
     58 H           5.6295    0.4238   -0.0263 H       1  UNL1        0.0622
     59 H           7.7992   -0.0433   -0.8827 H       1  UNL1        0.0646
     60 H           7.8618   -3.7867    1.2061 H       1  UNL1        0.0646
     61 H           5.6513   -3.3306    2.0837 H       1  UNL1        0.0622
@<TRIPOS>BOND
     1     1     2    1
     2     2     3    1
     3     3     4   ar
     4     4     5   ar
     5     5     6    1
     6     6     7    1
     7     7     8   am
     8     8     9    2
     9     8    10    1
    10    10    11   ar
    11    11    12   ar
    12    12    13   ar
    13    13    14   ar
    14     7    15    1
    15    15    16    1
    16    16    17   am
    17    16    18    2
    18    15    19    1
    19    19    20   ar
    20    20    21   ar
    21    21    22   ar
    22    22    23   ar
    23    23    24   ar
    24     5    25   ar
    25    25    26   ar
    26    26    27   ar
    27    27    28    1
    28    28    29    1
    29    29    30    1
    30    30    31   ar
    31    31    32   ar
    32    32    33   ar
    33    33    34    1
    34    33    35   ar
    35    35    36   ar
    36    27     3   ar
    37    36    30   ar
    38    14    10   ar
    39    24    19   ar
    40     1    37    1
    41     1    38    1
    42     1    39    1
    43     4    40    1
    44     6    41    1
    45     6    42    1
    46    11    43    1
    47    12    44    1
    48    13    45    1
    49    15    46    1
    50    17    47    1
    51    17    48    1
    52    20    49    1
    53    21    50    1
    54    22    51    1
    55    23    52    1
    56    24    53    1
    57    25    54    1
    58    26    55    1
    59    29    56    1
    60    29    57    1
    61    31    58    1
    62    32    59    1
    63    35    60    1
    64    36    61    1
@<TRIPOS>MOLECULE
50254018
 48 48 0 0 0
SMALL
GASTEIGER

@<TRIPOS>ATOM
      1 C           8.4816    1.3683    0.3315 C.3     1  UNL1        0.0788
      2 O           7.3013    1.3022    1.0876 O.3     1  UNL1       -0.4951
      3 C           6.1525    0.7459    0.5634 C.ar    1  UNL1        0.1201
      4 C           6.1877    0.2497   -0.7491 C.ar    1  UNL1       -0.0197
      5 C           5.0795   -0.3089   -1.3339 C.ar    1  UNL1       -0.0546
      6 C           3.8445   -0.4195   -0.6514 C.ar    1  UNL1       -0.0365
      7 C           2.7099   -0.9681   -1.4092 C.3     1  UNL1        0.0701
      8 C           1.3735   -0.5977   -0.9897 C.2     1  UNL1        0.3117
      9 O           0.4986   -1.5362   -0.9702 O.2     1  UNL1       -0.2505
     10 O           0.9935    0.6432   -0.6175 O.3     1  UNL1       -0.4602
     11 C          -0.3242    1.0195   -0.2415 C.3     1  UNL1        0.1109
     12 C          -0.9509    0.1304    0.7245 C.2     1  UNL1       -0.0480
     13 C          -2.0830   -0.5051    0.4080 C.2     1  UNL1       -0.0731
     14 C          -2.6318   -0.2397   -0.9493 C.3     1  UNL1       -0.0437
     15 C          -2.7717   -1.4320    1.3188 C.3     1  UNL1       -0.0285
     16 C          -4.1861   -1.0870    1.6732 C.3     1  UNL1       -0.0308
     17 C          -5.1050   -1.0589    0.4953 C.2     1  UNL1       -0.0850
     18 C          -5.8465   -0.0294    0.1367 C.2     1  UNL1       -0.0796
     19 C          -5.8706    1.2466    0.8621 C.3     1  UNL1       -0.0440
     20 C          -6.7078   -0.1921   -1.0957 C.3     1  UNL1       -0.0440
     21 C           3.8226    0.0650    0.6270 C.ar    1  UNL1       -0.0546
     22 C           4.9546    0.6350    1.2193 C.ar    1  UNL1       -0.0197
     23 H           8.8846    0.3428    0.1090 H       1  UNL1        0.0660
     24 H           9.3146    1.9009    0.8904 H       1  UNL1        0.0660
     25 H           8.3955    1.9187   -0.5993 H       1  UNL1        0.0660
     26 H           7.1422    0.3394   -1.2830 H       1  UNL1        0.0654
     27 H           5.1472   -0.6792   -2.3476 H       1  UNL1        0.0622
     28 H           2.8479   -2.0956   -1.3880 H       1  UNL1        0.0426
     29 H           2.9076   -0.7373   -2.5054 H       1  UNL1        0.0426
     30 H          -0.8980    1.1770   -1.1660 H       1  UNL1        0.0743
     31 H          -0.1878    2.0807    0.1603 H       1  UNL1        0.0743
     32 H          -0.5344   -0.0353    1.6998 H       1  UNL1        0.0605
     33 H          -3.0096    0.8099   -1.0301 H       1  UNL1        0.0274
     34 H          -3.4354   -0.9477   -1.2546 H       1  UNL1        0.0274
     35 H          -1.8278   -0.3910   -1.6826 H       1  UNL1        0.0274
     36 H          -2.1548   -1.4647    2.2678 H       1  UNL1        0.0313
     37 H          -2.7135   -2.4673    0.8974 H       1  UNL1        0.0313
     38 H          -4.6163   -1.8571    2.3598 H       1  UNL1        0.0310
     39 H          -4.2482   -0.1089    2.2089 H       1  UNL1        0.0310
     40 H          -5.1687   -1.9952   -0.0980 H       1  UNL1        0.0572
     41 H          -6.2414    2.0395    0.1684 H       1  UNL1        0.0274
     42 H          -6.6162    1.1950    1.7032 H       1  UNL1        0.0274
     43 H          -4.8821    1.5438    1.2079 H       1  UNL1        0.0274
     44 H          -6.3274    0.4947   -1.8712 H       1  UNL1        0.0274
     45 H          -7.7533    0.1239   -0.8653 H       1  UNL1        0.0274
     46 H          -6.7188   -1.2277   -1.4380 H       1  UNL1        0.0274
     47 H           2.8850   -0.0051    1.1704 H       1  UNL1        0.0622
     48 H           4.8868    1.0148    2.2459 H       1  UNL1        0.0654
@<TRIPOS>BOND
     1     1     2    1
     2     2     3    1
     3     3     4   ar
     4     4     5   ar
     5     5     6   ar
     6     6     7    1
     7     7     8    1
     8     8     9    2
     9     8    10    1
    10    10    11    1
    11    11    12    1
    12    12    13    2
    13    13    14    1
    14    13    15    1
    15    15    16    1
    16    16    17    1
    17    17    18    2
    18    18    19    1
    19    18    20    1
    20     6    21   ar
    21    21    22   ar
    22    22     3   ar
    23     1    23    1
    24     1    24    1
    25     1    25    1
    26     4    26    1
    27     5    27    1
    28     7    28    1
    29     7    29    1
    30    11    30    1
    31    11    31    1
    32    12    32    1
    33    14    33    1
    34    14    34    1
    35    14    35    1
    36    15    36    1
    37    15    37    1
    38    16    38    1
    39    16    39    1
    40    17    40    1
    41    19    41    1
    42    19    42    1
    43    19    43    1
    44    20    44    1
    45    20    45    1
    46    20    46    1
    47    21    47    1
    48    22    48    1
@<TRIPOS>MOLECULE
50542855
 43 44 0 0 0
SMALL
GASTEIGER

@<TRIPOS>ATOM
      1 C          -4.4878    2.5453    1.0177 C.3     1  UNL1        0.0788
      2 O          -3.2775    2.1359    0.4519 O.3     1  UNL1       -0.4951
      3 C          -2.8872    0.8365    0.2170 C.ar    1  UNL1        0.1204
      4 C          -3.7056   -0.2058    0.5412 C.ar    1  UNL1       -0.0199
      5 C          -3.2945   -1.4867    0.2973 C.ar    1  UNL1       -0.0580
      6 C          -2.0703   -1.7078   -0.2675 C.ar    1  UNL1       -0.0568
      7 C          -1.2068   -0.6709   -0.6120 C.ar    1  UNL1       -0.0266
      8 C           0.1045   -0.8820   -1.2293 C.3     1  UNL1        0.0409
      9 N           1.1885   -1.1185   -0.3135 N.am    1  UNL1       -0.2819
     10 C           1.9682   -0.0309    0.1279 C.2     1  UNL1        0.2475
     11 O           2.9063   -0.2884    0.9371 O.2     1  UNL1       -0.2700
     12 C           1.8029    1.3514   -0.2534 C.ar    1  UNL1        0.0369
     13 C           2.0436    1.8186   -1.5307 C.ar    1  UNL1       -0.0496
     14 C           1.8858    3.1481   -1.8786 C.ar    1  UNL1       -0.0610
     15 C           1.4725    4.0739   -0.9373 C.ar    1  UNL1       -0.0617
     16 C           1.2274    3.6385    0.3342 C.ar    1  UNL1       -0.0610
     17 C           1.3877    2.3285    0.6578 C.ar    1  UNL1       -0.0496
     18 C           1.4596   -2.4808    0.1397 C.3     1  UNL1        0.0998
     19 C           1.3513   -2.6186    1.6208 C.3     1  UNL1       -0.0379
     20 C           2.8015   -2.9339   -0.3157 C.2     1  UNL1        0.2308
     21 N           3.3284   -4.2034   -0.0249 N.am    1  UNL1       -0.3278
     22 O           3.4931   -2.1277   -0.9979 O.2     1  UNL1       -0.2740
     23 C          -1.6361    0.6051   -0.3604 C.ar    1  UNL1       -0.0153
     24 H          -4.6797    3.5895    0.6446 H       1  UNL1        0.0660
     25 H          -5.2875    1.8653    0.6686 H       1  UNL1        0.0660
     26 H          -4.3587    2.5526    2.1167 H       1  UNL1        0.0660
     27 H          -4.6793   -0.0461    0.9905 H       1  UNL1        0.0654
     28 H          -3.9554   -2.3136    0.5589 H       1  UNL1        0.0619
     29 H          -1.7555   -2.7044   -0.4555 H       1  UNL1        0.0621
     30 H           0.3295    0.0054   -1.8582 H       1  UNL1        0.0514
     31 H          -0.0122   -1.7743   -1.9186 H       1  UNL1        0.0514
     32 H           2.3699    1.1438   -2.2959 H       1  UNL1        0.0625
     33 H           2.0702    3.5198   -2.8696 H       1  UNL1        0.0618
     34 H           1.3418    5.1277   -1.1925 H       1  UNL1        0.0618
     35 H           0.9010    4.3882    1.0646 H       1  UNL1        0.0618
     36 H           1.1894    2.0015    1.6651 H       1  UNL1        0.0625
     37 H           0.7257   -3.1464   -0.3368 H       1  UNL1        0.0594
     38 H           1.3227   -1.6411    2.1519 H       1  UNL1        0.0252
     39 H           2.1994   -3.2270    1.9857 H       1  UNL1        0.0252
     40 H           0.4304   -3.2110    1.8883 H       1  UNL1        0.0252
     41 H           3.7049   -4.7909   -0.7824 H       1  UNL1        0.1450
     42 H           3.3409   -4.5494    0.9451 H       1  UNL1        0.1450
     43 H          -1.0528    1.4838   -0.5923 H       1  UNL1        0.0657
@<TRIPOS>BOND
     1     1     2    1
     2     2     3    1
     3     3     4   ar
     4     4     5   ar
     5     5     6   ar
     6     6     7   ar
     7     7     8    1
     8     8     9    1
     9     9    10   am
    10    10    11    2
    11    10    12    1
    12    12    13   ar
    13    13    14   ar
    14    14    15   ar
    15    15    16   ar
    16    16    17   ar
    17     9    18    1
    18    18    19    1
    19    18    20    1
    20    20    21   am
    21    20    22    2
    22     7    23   ar
    23    23     3   ar
    24    17    12   ar
    25     1    24    1
    26     1    25    1
    27     1    26    1
    28     4    27    1
    29     5    28    1
    30     6    29    1
    31     8    30    1
    32     8    31    1
    33    13    32    1
    34    14    33    1
    35    15    34    1
    36    16    35    1
    37    17    36    1
    38    18    37    1
    39    19    38    1
    40    19    39    1
    41    19    40    1
    42    21    41    1
    43    21    42    1
    44    23    43    1
@<TRIPOS>MOLECULE
137241038
 34 36 0 0 0
SMALL
GASTEIGER

@<TRIPOS>ATOM
      1 O          -2.3965   -2.7206   -0.7599 O.2     1  UNL1       -0.2692
      2 C          -1.9245   -1.6047   -0.4601 C.2     1  UNL1        0.2602
      3 C          -0.4962   -1.4513   -0.3450 C.ar    1  UNL1        0.1373
      4 S           0.4132   -0.0067    0.0536 S.2     1  UNL1       -0.0588
      5 C           2.0905   -0.8532   -0.0612 C.ar    1  UNL1        0.1129
      6 C           3.2936   -0.0806    0.1905 C.ar    1  UNL1        0.0100
      7 C           4.5013   -0.7276    0.0988 C.ar    1  UNL1       -0.0519
      8 C           5.6766   -0.0780    0.3192 C.ar    1  UNL1       -0.0584
      9 C           5.6303    1.2765    0.6445 C.ar    1  UNL1       -0.0264
     10 C           4.4305    1.9511    0.7434 C.ar    1  UNL1        0.1240
     11 F           4.3953    3.2723    1.0613 F       1  UNL1       -0.2055
     12 C           3.2607    1.2353    0.5072 C.ar    1  UNL1       -0.0168
     13 N           1.7190   -1.9746   -0.3527 N.ar    1  UNL1       -0.2047
     14 C           0.4955   -2.3986   -0.5210 C.ar    1  UNL1        0.2327
     15 O           0.0944   -3.7283   -0.8645 O.3     1  UNL1       -0.4915
     16 N          -2.7828   -0.5146   -0.2387 N.am    1  UNL1       -0.2737
     17 C          -2.3230    0.8014    0.1115 C.3     1  UNL1        0.0192
     18 C          -3.4717    1.7498    0.3879 C.3     1  UNL1       -0.0134
     19 C          -4.6951    1.4911   -0.4235 C.3     1  UNL1        0.0511
     20 O          -4.6833    0.3400   -1.1684 O.3     1  UNL1       -0.3613
     21 C          -4.2324   -0.7094   -0.3688 C.3     1  UNL1        0.1160
     22 H           4.5100   -1.7860   -0.1569 H       1  UNL1        0.0624
     23 H           6.6136   -0.6058    0.2418 H       1  UNL1        0.0619
     24 H           6.5561    1.8076    0.8228 H       1  UNL1        0.0646
     25 H           2.3051    1.7518    0.5809 H       1  UNL1        0.0653
     26 H           0.8128   -4.4263   -1.0016 H       1  UNL1        0.2938
     27 H          -1.7819    0.7088    1.0817 H       1  UNL1        0.0466
     28 H          -1.6700    1.2443   -0.6652 H       1  UNL1        0.0466
     29 H          -3.0829    2.7876    0.1738 H       1  UNL1        0.0303
     30 H          -3.7394    1.7466    1.4721 H       1  UNL1        0.0303
     31 H          -4.8529    2.3426   -1.1494 H       1  UNL1        0.0561
     32 H          -5.6121    1.5396    0.2347 H       1  UNL1        0.0561
     33 H          -4.4149   -1.6853   -0.8348 H       1  UNL1        0.0771
     34 H          -4.6390   -0.6948    0.6452 H       1  UNL1        0.0771
@<TRIPOS>BOND
     1     1     2    2
     2     2     3    1
     3     3     4   ar
     4     4     5   ar
     5     5     6    1
     6     6     7   ar
     7     7     8   ar
     8     8     9   ar
     9     9    10   ar
    10    10    11    1
    11    10    12   ar
    12     5    13   ar
    13    13    14   ar
    14    14    15    1
    15     2    16   am
    16    16    17    1
    17    17    18    1
    18    18    19    1
    19    19    20    1
    20    20    21    1
    21    14     3   ar
    22    21    16    1
    23    12     6   ar
    24     7    22    1
    25     8    23    1
    26     9    24    1
    27    12    25    1
    28    15    26    1
    29    17    27    1
    30    17    28    1
    31    18    29    1
    32    18    30    1
    33    19    31    1
    34    19    32    1
    35    21    33    1
    36    21    34    1
@<TRIPOS>MOLECULE
51135392
 51 55 0 0 0
SMALL
GASTEIGER

@<TRIPOS>ATOM
      1 O           6.7714   -2.0247   -1.9344 O.2     1  UNL1       -0.2451
      2 C           6.3257   -1.9435   -0.7715 C.2     1  UNL1        0.3368
      3 O           6.9925   -2.5620    0.2654 O.3     1  UNL1       -0.4771
      4 C           5.1071   -1.2068   -0.4669 C.ar    1  UNL1        0.0589
      5 C           4.3911   -0.5614   -1.4747 C.ar    1  UNL1       -0.0475
      6 C           3.2393    0.1352   -1.1888 C.ar    1  UNL1       -0.0566
      7 C           2.7313    0.2344    0.0996 C.ar    1  UNL1       -0.0333
      8 C           1.4848    0.9972    0.3851 C.3     1  UNL1        0.0250
      9 N           0.2948    0.1709    0.2721 N.3     1  UNL1       -0.2859
     10 C           0.4289   -0.8899    1.2324 C.3     1  UNL1        0.0042
     11 C          -0.7752   -1.7824    1.3489 C.3     1  UNL1       -0.0125
     12 C          -1.9772   -1.2110    0.7263 C.ar    1  UNL1       -0.0160
     13 C          -2.0637    0.1076    0.3466 C.ar    1  UNL1        0.0421
     14 N          -3.2667    0.3034   -0.1781 N.ar    1  UNL1       -0.3562
     15 C          -3.9735   -0.8577   -0.1518 C.ar    1  UNL1        0.0470
     16 C          -5.2518   -1.1539   -0.5771 C.ar    1  UNL1       -0.0378
     17 C          -5.7463   -2.4249   -0.4385 C.ar    1  UNL1       -0.0598
     18 C          -4.9543   -3.3951    0.1275 C.ar    1  UNL1       -0.0611
     19 C          -3.6857   -3.0969    0.5485 C.ar    1  UNL1       -0.0523
     20 C          -3.1719   -1.8242    0.4170 C.ar    1  UNL1        0.0032
     21 C          -0.8518    0.9590    0.6003 C.3     1  UNL1        0.0767
     22 C          -0.9484    2.2507   -0.0860 C.ar    1  UNL1       -0.0245
     23 C          -0.7353    2.3857   -1.4371 C.ar    1  UNL1       -0.0567
     24 C          -0.8354    3.6348   -2.0623 C.ar    1  UNL1       -0.0614
     25 C          -1.1515    4.7564   -1.3273 C.ar    1  UNL1       -0.0617
     26 C          -1.3644    4.6305    0.0139 C.ar    1  UNL1       -0.0614
     27 C          -1.2632    3.3889    0.6261 C.ar    1  UNL1       -0.0567
     28 C           3.4519   -0.4097    1.0837 C.ar    1  UNL1       -0.0566
     29 C           4.6066   -1.1112    0.8145 C.ar    1  UNL1       -0.0475
     30 H           8.0020   -2.6872    0.2484 H       1  UNL1        0.2954
     31 H           4.8066   -0.6532   -2.4693 H       1  UNL1        0.0626
     32 H           2.6953    0.6309   -1.9846 H       1  UNL1        0.0621
     33 H           1.5363    1.3336    1.4587 H       1  UNL1        0.0476
     34 H           1.3632    1.8599   -0.2913 H       1  UNL1        0.0476
     35 H           1.2827   -1.5540    0.9750 H       1  UNL1        0.0430
     36 H           0.6944   -0.4386    2.2333 H       1  UNL1        0.0430
     37 H          -0.5996   -2.7913    0.8734 H       1  UNL1        0.0326
     38 H          -0.9647   -1.9816    2.4213 H       1  UNL1        0.0326
     39 H          -3.6035    1.2074   -0.5476 H       1  UNL1        0.1657
     40 H          -5.8930   -0.3901   -1.0297 H       1  UNL1        0.0638
     41 H          -6.7540   -2.6827   -0.7674 H       1  UNL1        0.0618
     42 H          -5.3166   -4.4155    0.2525 H       1  UNL1        0.0618
     43 H          -3.0329   -3.8576    1.0048 H       1  UNL1        0.0624
     44 H          -0.8380    1.1056    1.7139 H       1  UNL1        0.0577
     45 H          -0.4879    1.5178   -2.0222 H       1  UNL1        0.0621
     46 H          -0.6686    3.7380   -3.1177 H       1  UNL1        0.0618
     47 H          -1.2381    5.7420   -1.7774 H       1  UNL1        0.0618
     48 H          -1.6123    5.4989    0.6014 H       1  UNL1        0.0618
     49 H          -1.4334    3.2898    1.6968 H       1  UNL1        0.0621
     50 H           3.0843   -0.3525    2.1016 H       1  UNL1        0.0621
     51 H           5.1690   -1.6191    1.6123 H       1  UNL1        0.0626
@<TRIPOS>BOND
     1     1     2    2
     2     2     3    1
     3     2     4    1
     4     4     5   ar
     5     5     6   ar
     6     6     7   ar
     7     7     8    1
     8     8     9    1
     9     9    10    1
    10    10    11    1
    11    11    12    1
    12    12    13   ar
    13    13    14   ar
    14    14    15   ar
    15    15    16   ar
    16    16    17   ar
    17    17    18   ar
    18    18    19   ar
    19    19    20   ar
    20    13    21    1
    21    21    22    1
    22    22    23   ar
    23    23    24   ar
    24    24    25   ar
    25    25    26   ar
    26    26    27   ar
    27     7    28   ar
    28    28    29   ar
    29    29     4   ar
    30    21     9    1
    31    27    22   ar
    32    20    12   ar
    33    20    15   ar
    34     3    30    1
    35     5    31    1
    36     6    32    1
    37     8    33    1
    38     8    34    1
    39    10    35    1
    40    10    36    1
    41    11    37    1
    42    11    38    1
    43    14    39    1
    44    16    40    1
    45    17    41    1
    46    18    42    1
    47    19    43    1
    48    21    44    1
    49    23    45    1
    50    24    46    1
    51    25    47    1
    52    26    48    1
    53    27    49    1
    54    28    50    1
    55    29    51    1
@<TRIPOS>MOLECULE
135841307
 22 23 0 0 0
SMALL
GASTEIGER

@<TRIPOS>ATOM
      1 O           4.1754    1.7643    1.4295 O.2     1  UNL1       -0.2443
      2 C           4.0056    0.7683    0.6875 C.2     1  UNL1        0.3488
      3 O           5.1251    0.1065    0.2241 O.3     1  UNL1       -0.4766
      4 C           2.6701    0.3190    0.3224 C.ar    1  UNL1        0.1591
      5 S           1.1357    1.1028    0.8662 S.2     1  UNL1       -0.0569
      6 C           0.0980   -0.1604   -0.0949 C.ar    1  UNL1        0.1129
      7 C          -1.3737   -0.0242   -0.0295 C.ar    1  UNL1        0.0073
      8 C          -2.1410   -0.9379   -0.7250 C.ar    1  UNL1       -0.0520
      9 C          -3.5130   -0.8513   -0.6941 C.ar    1  UNL1       -0.0611
     10 C          -4.1458    0.1404    0.0255 C.ar    1  UNL1       -0.0617
     11 C          -3.3752    1.0325    0.7051 C.ar    1  UNL1       -0.0611
     12 C          -1.9871    0.9490    0.6768 C.ar    1  UNL1       -0.0520
     13 N           0.9203   -0.8004   -0.5493 N.ar    1  UNL1       -0.2046
     14 C           2.2243   -0.7051   -0.4472 C.ar    1  UNL1        0.2346
     15 O           3.1158   -1.5867   -1.0789 O.3     1  UNL1       -0.4915
     16 H           6.0012    0.0595    0.7377 H       1  UNL1        0.2954
     17 H          -1.6078   -1.7201   -1.2917 H       1  UNL1        0.0624
     18 H          -4.0793   -1.5879   -1.2535 H       1  UNL1        0.0618
     19 H          -5.2247    0.2025    0.0454 H       1  UNL1        0.0618
     20 H          -3.8827    1.8180    1.2749 H       1  UNL1        0.0618
     21 H          -1.4073    1.6821    1.2340 H       1  UNL1        0.0624
     22 H           3.2660   -1.5708   -2.0650 H       1  UNL1        0.2938
@<TRIPOS>BOND
     1     1     2    2
     2     2     3    1
     3     2     4    1
     4     4     5   ar
     5     5     6   ar
     6     6     7    1
     7     7     8   ar
     8     8     9   ar
     9     9    10   ar
    10    10    11   ar
    11    11    12   ar
    12     6    13   ar
    13    13    14   ar
    14    14    15    1
    15    14     4   ar
    16    12     7   ar
    17     3    16    1
    18     8    17    1
    19     9    18    1
    20    10    19    1
    21    11    20    1
    22    12    21    1
    23    15    22    1
@<TRIPOS>MOLECULE
136602042
 24 26 0 0 0
SMALL
GASTEIGER

@<TRIPOS>ATOM
      1 O           1.8485    1.7632   -2.2179 O.3     1  UNL1       -0.4915
      2 C           1.3229    0.9597   -1.1801 C.ar    1  UNL1        0.2313
      3 N           0.0342    0.7857   -1.0329 N.ar    1  UNL1       -0.2047
      4 C          -0.5333    0.1576   -0.2320 C.ar    1  UNL1        0.1129
      5 C          -1.8911   -0.2334    0.2004 C.ar    1  UNL1        0.0100
      6 C          -2.1931   -1.0359    1.2517 C.ar    1  UNL1       -0.0519
      7 C          -3.4946   -1.3528    1.5888 C.ar    1  UNL1       -0.0584
      8 C          -4.5481   -0.8615    0.8634 C.ar    1  UNL1       -0.0264
      9 C          -4.2509   -0.0391   -0.2149 C.ar    1  UNL1        0.1240
     10 F          -5.2933    0.4386   -0.9214 F       1  UNL1       -0.2055
     11 C          -2.9288    0.2725   -0.5435 C.ar    1  UNL1       -0.0168
     12 S           0.9362   -0.5014    0.7446 S.2     1  UNL1       -0.0601
     13 C           2.1074    0.3362   -0.2961 C.ar    1  UNL1        0.1230
     14 C           3.6021    0.2962   -0.1441 C.ar    1  UNL1        0.2160
     15 N           4.4351    1.3517   -0.1274 N.ar    1  UNL1       -0.1073
     16 N           5.6842    0.8838    0.0271 N.ar    1  UNL1       -0.0485
     17 N           5.6486   -0.4439    0.1073 N.ar    1  UNL1       -0.1761
     18 N           4.3671   -0.7783    0.0003 N.ar    1  UNL1       -0.1324
     19 H           2.0839    2.7183   -2.0785 H       1  UNL1        0.2938
     20 H          -1.3452   -1.4295    1.8330 H       1  UNL1        0.0624
     21 H          -3.6732   -1.9882    2.4251 H       1  UNL1        0.0619
     22 H          -5.5907   -1.0997    1.1124 H       1  UNL1        0.0646
     23 H          -2.7627    0.9177   -1.3939 H       1  UNL1        0.0653
     24 H           6.4348   -1.1175    0.2285 H       1  UNL1        0.2143
@<TRIPOS>BOND
     1     1     2    1
     2     2     3   ar
     3     3     4   ar
     4     4     5    1
     5     5     6   ar
     6     6     7   ar
     7     7     8   ar
     8     8     9   ar
     9     9    10    1
    10     9    11   ar
    11     4    12   ar
    12    12    13   ar
    13    13    14    1
    14    14    15   ar
    15    15    16   ar
    16    16    17   ar
    17    17    18   ar
    18    13     2   ar
    19    18    14   ar
    20    11     5   ar
    21     1    19    1
    22     6    20    1
    23     7    21    1
    24     8    22    1
    25    11    23    1
    26    17    24    1
@<TRIPOS>MOLECULE
51078698
 20 21 0 0 0
SMALL
GASTEIGER

@<TRIPOS>ATOM
      1 C          -3.4577   -0.5823    0.1007 C.2     1  UNL1       -0.0554
      2 C          -2.4728    0.2369   -0.1947 C.2     1  UNL1        0.1329
      3 O          -2.5091    1.5116   -0.7170 O.3     1  UNL1       -0.4223
      4 C          -1.2198    2.0027   -0.8663 C.2     1  UNL1        0.3451
      5 O          -0.8965    3.1391   -1.3177 O.2     1  UNL1       -0.2445
      6 C          -0.2842    0.9991   -0.4190 C.ar    1  UNL1        0.0703
      7 C           1.1021    0.9873   -0.3589 C.ar    1  UNL1       -0.0428
      8 C           1.7112   -0.1488    0.1295 C.ar    1  UNL1       -0.0313
      9 C           3.1947   -0.1938    0.2070 C.3     1  UNL1       -0.0383
     10 C           0.9690   -1.2350    0.5437 C.ar    1  UNL1        0.0446
     11 CL          1.7606   -2.6748    1.1634 Cl      1  UNL1       -0.0832
     12 C          -0.4289   -1.2140    0.4794 C.ar    1  UNL1       -0.0317
     13 C          -1.0425   -0.0776   -0.0093 C.ar    1  UNL1        0.0322
     14 H          -3.2770   -1.5577    0.5064 H       1  UNL1        0.0571
     15 H          -4.4727   -0.2746   -0.0654 H       1  UNL1        0.0571
     16 H           1.6776    1.8572   -0.6914 H       1  UNL1        0.0629
     17 H           3.6223    0.8242    0.1754 H       1  UNL1        0.0278
     18 H           3.5371   -0.8307   -0.6382 H       1  UNL1        0.0278
     19 H           3.4811   -0.6898    1.1619 H       1  UNL1        0.0278
     20 H          -0.9946   -2.0790    0.8103 H       1  UNL1        0.0639
@<TRIPOS>BOND
     1     1     2    2
     2     2     3    1
     3     3     4    1
     4     4     5    2
     5     4     6    1
     6     6     7   ar
     7     7     8   ar
     8     8     9    1
     9     8    10   ar
    10    10    11    1
    11    10    12   ar
    12    12    13   ar
    13    13     2    1
    14    13     6   ar
    15     1    14    1
    16     1    15    1
    17     7    16    1
    18     9    17    1
    19     9    18    1
    20     9    19    1
    21    12    20    1
@<TRIPOS>MOLECULE
51078701
 23 24 0 0 0
SMALL
GASTEIGER

@<TRIPOS>ATOM
      1 C           3.2487   -1.2175   -0.5406 C.2     1  UNL1       -0.0554
      2 C           1.9817   -1.4756   -0.3720 C.2     1  UNL1        0.1328
      3 O           1.3076   -2.6906   -0.3465 O.3     1  UNL1       -0.4223
      4 C          -0.0449   -2.5334   -0.1408 C.2     1  UNL1        0.3454
      5 O          -0.9447   -3.4236   -0.0631 O.2     1  UNL1       -0.2445
      6 C          -0.2655   -1.1039   -0.0236 C.ar    1  UNL1        0.0729
      7 C          -1.4012   -0.3687    0.1850 C.ar    1  UNL1       -0.0355
      8 C          -2.6916   -1.0506    0.3317 C.3     1  UNL1       -0.0389
      9 C          -1.3226    0.9924    0.2545 C.ar    1  UNL1       -0.0551
     10 C          -0.1224    1.6411    0.1189 C.ar    1  UNL1       -0.0495
     11 C           0.0067    3.1198    0.1882 C.3     1  UNL1       -0.0397
     12 C           1.0308    0.9168   -0.0916 C.ar    1  UNL1       -0.0474
     13 C           0.9340   -0.4583   -0.1594 C.ar    1  UNL1        0.0313
     14 H           3.6003   -0.2033   -0.5313 H       1  UNL1        0.0571
     15 H           3.9620   -2.0089   -0.6912 H       1  UNL1        0.0571
     16 H          -2.7792   -1.9845   -0.2574 H       1  UNL1        0.0278
     17 H          -2.9162   -1.1931    1.4052 H       1  UNL1        0.0278
     18 H          -3.4788   -0.3602   -0.0893 H       1  UNL1        0.0278
     19 H          -2.2418    1.5584    0.4217 H       1  UNL1        0.0623
     20 H           0.9720    3.3467    0.6894 H       1  UNL1        0.0278
     21 H           0.0058    3.5073   -0.8426 H       1  UNL1        0.0278
     22 H          -0.8380    3.5647    0.7558 H       1  UNL1        0.0278
     23 H           1.9972    1.4249   -0.2017 H       1  UNL1        0.0627
@<TRIPOS>BOND
     1     1     2    2
     2     2     3    1
     3     3     4    1
     4     4     5    2
     5     4     6    1
     6     6     7   ar
     7     7     8    1
     8     7     9   ar
     9     9    10   ar
    10    10    11    1
    11    10    12   ar
    12    12    13   ar
    13    13     2    1
    14    13     6   ar
    15     1    14    1
    16     1    15    1
    17     8    16    1
    18     8    17    1
    19     8    18    1
    20     9    19    1
    21    11    20    1
    22    11    21    1
    23    11    22    1
    24    12    23    1
@<TRIPOS>MOLECULE
51078695
 26 27 0 0 0
SMALL
GASTEIGER

@<TRIPOS>ATOM
      1 C          -3.8511    0.3398    0.2124 C.3     1  UNL1       -0.0650
      2 C          -3.2266   -0.9804   -0.1858 C.3     1  UNL1       -0.0523
      3 C          -2.0920   -0.7792   -1.1484 C.3     1  UNL1       -0.0313
      4 C          -1.0047    0.0589   -0.5805 C.2     1  UNL1       -0.0409
      5 C           0.2544   -0.3943   -0.4399 C.2     1  UNL1        0.1360
      6 O           0.6431   -1.6728   -0.8099 O.3     1  UNL1       -0.4220
      7 C           1.9942   -1.7900   -0.5249 C.2     1  UNL1        0.3451
      8 O           2.6906   -2.8484   -0.7404 O.2     1  UNL1       -0.2445
      9 C           2.4600   -0.5398    0.0420 C.ar    1  UNL1        0.0700
     10 C           3.7243   -0.1860    0.4770 C.ar    1  UNL1       -0.0471
     11 C           3.8814    1.1002    0.9822 C.ar    1  UNL1       -0.0609
     12 C           2.8413    1.9886    1.0526 C.ar    1  UNL1       -0.0610
     13 C           1.5839    1.5884    0.6025 C.ar    1  UNL1       -0.0503
     14 C           1.3955    0.3242    0.0977 C.ar    1  UNL1        0.0310
     15 H          -3.5857    1.1436   -0.5193 H       1  UNL1        0.0230
     16 H          -3.5507    0.6566    1.2347 H       1  UNL1        0.0230
     17 H          -4.9561    0.2893    0.2197 H       1  UNL1        0.0230
     18 H          -2.9445   -1.5973    0.6905 H       1  UNL1        0.0266
     19 H          -4.0136   -1.5505   -0.7219 H       1  UNL1        0.0266
     20 H          -1.7205   -1.7458   -1.5053 H       1  UNL1        0.0308
     21 H          -2.5086   -0.2119   -2.0205 H       1  UNL1        0.0308
     22 H          -1.1641    1.0735   -0.2509 H       1  UNL1        0.0609
     23 H           4.5446   -0.8814    0.4234 H       1  UNL1        0.0626
     24 H           4.8793    1.3501    1.3148 H       1  UNL1        0.0618
     25 H           2.9678    2.9799    1.4432 H       1  UNL1        0.0618
     26 H           0.7578    2.2851    0.6552 H       1  UNL1        0.0625
@<TRIPOS>BOND
     1     1     2    1
     2     2     3    1
     3     3     4    1
     4     4     5    2
     5     5     6    1
     6     6     7    1
     7     7     8    2
     8     7     9    1
     9     9    10   ar
    10    10    11   ar
    11    11    12   ar
    12    12    13   ar
    13    13    14   ar
    14    14     5    1
    15    14     9   ar
    16     1    15    1
    17     1    16    1
    18     1    17    1
    19     2    18    1
    20     2    19    1
    21     3    20    1
    22     3    21    1
    23     4    22    1
    24    10    23    1
    25    11    24    1
    26    12    25    1
    27    13    26    1
@<TRIPOS>MOLECULE
51078697
 24 25 0 0 0
SMALL
GASTEIGER

@<TRIPOS>ATOM
      1 C          -3.8695   -0.3947   -0.0080 C.3     1  UNL1       -0.0431
      2 C          -2.3916   -0.6300   -0.0277 C.2     1  UNL1       -0.0440
      3 C          -1.6093    0.4396    0.0328 C.2     1  UNL1        0.1358
      4 O          -2.0297    1.7601    0.1127 O.3     1  UNL1       -0.4220
      5 C          -0.9185    2.6020    0.1584 C.2     1  UNL1        0.3451
      6 O          -0.8940    3.8618    0.2330 O.2     1  UNL1       -0.2445
      7 C           0.3015    1.7897    0.1054 C.ar    1  UNL1        0.0702
      8 C           1.6428    2.1136    0.1196 C.ar    1  UNL1       -0.0436
      9 C           2.5803    1.1056    0.0561 C.ar    1  UNL1       -0.0191
     10 C           2.1422   -0.2195   -0.0207 C.ar    1  UNL1        0.1208
     11 O           3.0665   -1.2450   -0.0852 O.3     1  UNL1       -0.4951
     12 C           2.6086   -2.5749   -0.1623 C.3     1  UNL1        0.0788
     13 C           0.7988   -0.5180   -0.0333 C.ar    1  UNL1       -0.0085
     14 C          -0.1385    0.4855    0.0299 C.ar    1  UNL1        0.0345
     15 H          -4.2167   -0.6695    1.0083 H       1  UNL1        0.0273
     16 H          -4.3345   -1.1429   -0.7073 H       1  UNL1        0.0273
     17 H          -4.1007    0.6368   -0.2931 H       1  UNL1        0.0273
     18 H          -1.9660   -1.6166   -0.0879 H       1  UNL1        0.0606
     19 H           1.9713    3.1552    0.1801 H       1  UNL1        0.0627
     20 H           3.6509    1.3021    0.0637 H       1  UNL1        0.0654
     21 H           1.8731   -2.7578    0.6633 H       1  UNL1        0.0660
     22 H           1.9960   -2.6417   -1.1072 H       1  UNL1        0.0660
     23 H           3.4177   -3.3123   -0.1387 H       1  UNL1        0.0660
     24 H           0.4196   -1.5291   -0.0918 H       1  UNL1        0.0661
@<TRIPOS>BOND
     1     1     2    1
     2     2     3    2
     3     3     4    1
     4     4     5    1
     5     5     6    2
     6     5     7    1
     7     7     8   ar
     8     8     9   ar
     9     9    10   ar
    10    10    11    1
    11    11    12    1
    12    10    13   ar
    13    13    14   ar
    14    14     3    1
    15    14     7   ar
    16     1    15    1
    17     1    16    1
    18     1    17    1
    19     2    18    1
    20     8    19    1
    21     9    20    1
    22    12    21    1
    23    12    22    1
    24    12    23    1
    25    13    24    1
@<TRIPOS>MOLECULE
51078703
 20 21 0 0 0
SMALL
GASTEIGER

@<TRIPOS>ATOM
      1 C           2.7463   -0.8014    2.1206 C.2     1  UNL1       -0.0554
      2 C           1.9170    0.0859    1.5681 C.2     1  UNL1        0.1328
      3 O           1.9330    1.4622    1.7671 O.3     1  UNL1       -0.4223
      4 C           0.9219    2.0551    1.0273 C.2     1  UNL1        0.3451
      5 O           0.6881    3.2803    1.0033 O.2     1  UNL1       -0.2445
      6 C           0.1930    1.0302    0.2977 C.ar    1  UNL1        0.0703
      7 C          -0.8784    1.0188   -0.5726 C.ar    1  UNL1       -0.0441
      8 C          -1.3741   -0.1398   -1.1312 C.ar    1  UNL1       -0.0496
      9 C          -2.5338   -0.0978   -2.0659 C.3     1  UNL1       -0.0397
     10 C          -0.7526   -1.3209   -0.7869 C.ar    1  UNL1       -0.0581
     11 C           0.3194   -1.3201    0.0825 C.ar    1  UNL1       -0.0501
     12 C           0.8185   -0.1624    0.6437 C.ar    1  UNL1        0.0308
     13 H           2.6573   -1.8553    1.9060 H       1  UNL1        0.0571
     14 H           3.5219   -0.4852    2.7923 H       1  UNL1        0.0571
     15 H          -1.3532    1.9556   -0.8310 H       1  UNL1        0.0628
     16 H          -3.2747   -0.8897   -1.8447 H       1  UNL1        0.0278
     17 H          -3.0492    0.8639   -1.9795 H       1  UNL1        0.0278
     18 H          -2.1767   -0.1696   -3.1287 H       1  UNL1        0.0278
     19 H          -1.1395   -2.2501   -1.2262 H       1  UNL1        0.0620
     20 H           0.8159   -2.2598    0.3582 H       1  UNL1        0.0625
@<TRIPOS>BOND
     1     1     2    2
     2     2     3    1
     3     3     4    1
     4     4     5    2
     5     4     6    1
     6     6     7   ar
     7     7     8   ar
     8     8     9    1
     9     8    10   ar
    10    10    11   ar
    11    11    12   ar
    12    12     2    1
    13    12     6   ar
    14     1    13    1
    15     1    14    1
    16     7    15    1
    17     9    16    1
    18     9    17    1
    19     9    18    1
    20    10    19    1
    21    11    20    1
@<TRIPOS>MOLECULE
51078700
 17 18 0 0 0
SMALL
GASTEIGER

@<TRIPOS>ATOM
      1 C          -2.7523   -0.7395    0.4065 C.2     1  UNL1       -0.0554
      2 C          -1.7907    0.1638    0.3140 C.2     1  UNL1        0.1328
      3 O          -1.8751    1.5358    0.4336 O.3     1  UNL1       -0.4223
      4 C          -0.5978    2.0994    0.2619 C.2     1  UNL1        0.3452
      5 O          -0.2951    3.3145    0.3043 O.2     1  UNL1       -0.2445
      6 C           0.3452    1.0286    0.0209 C.ar    1  UNL1        0.0727
      7 C           1.6999    0.9746   -0.2113 C.ar    1  UNL1       -0.0118
      8 C           2.3693   -0.2329   -0.4167 C.ar    1  UNL1        0.1242
      9 F           3.6991   -0.2801   -0.6442 F       1  UNL1       -0.2055
     10 C           1.6517   -1.3963   -0.3853 C.ar    1  UNL1       -0.0257
     11 C           0.2841   -1.3538   -0.1518 C.ar    1  UNL1       -0.0476
     12 C          -0.3933   -0.1612    0.0538 C.ar    1  UNL1        0.0309
     13 H          -3.7852   -0.4174    0.6051 H       1  UNL1        0.0571
     14 H          -2.6005   -1.7838    0.3007 H       1  UNL1        0.0571
     15 H           2.2845    1.8798   -0.2402 H       1  UNL1        0.0654
     16 H           2.0785   -2.3786   -0.5326 H       1  UNL1        0.0646
     17 H          -0.3222   -2.2528   -0.1188 H       1  UNL1        0.0626
@<TRIPOS>BOND
     1     1     2    2
     2     2     3    1
     3     3     4    1
     4     4     5    2
     5     4     6    1
     6     6     7   ar
     7     7     8   ar
     8     8     9    1
     9     8    10   ar
    10    10    11   ar
    11    11    12   ar
    12    12     2    1
    13    12     6   ar
    14     1    13    1
    15     1    14    1
    16     7    15    1
    17    10    16    1
    18    11    17    1
@<TRIPOS>MOLECULE
51078699
 21 22 0 0 0
SMALL
GASTEIGER

@<TRIPOS>ATOM
      1 C          -3.4020   -0.7960   -1.2573 C.2     1  UNL1       -0.0554
      2 C          -2.6953   -0.0850   -0.4002 C.2     1  UNL1        0.1328
      3 O          -3.1980    0.8079    0.5194 O.3     1  UNL1       -0.4223
      4 C          -2.1391    1.3505    1.2322 C.2     1  UNL1        0.3452
      5 O          -2.1978    2.2153    2.1710 O.2     1  UNL1       -0.2445
      6 C          -0.9195    0.7574    0.7214 C.ar    1  UNL1        0.0735
      7 C           0.3823    0.9535    1.0827 C.ar    1  UNL1       -0.0053
      8 C           1.3793    0.2588    0.4357 C.ar    1  UNL1        0.1209
      9 O           2.6722    0.4776    0.8208 O.3     1  UNL1       -0.4951
     10 C           3.7913   -0.1647    0.2451 C.3     1  UNL1        0.0788
     11 C           1.0835   -0.6242   -0.5631 C.ar    1  UNL1       -0.0192
     12 C          -0.2244   -0.8061   -0.9097 C.ar    1  UNL1       -0.0469
     13 C          -1.2646   -0.1255   -0.2829 C.ar    1  UNL1        0.0310
     14 H          -2.9548   -1.4801   -1.9548 H       1  UNL1        0.0571
     15 H          -4.4874   -0.7106   -1.2865 H       1  UNL1        0.0571
     16 H           0.6196    1.6669    1.8894 H       1  UNL1        0.0662
     17 H           3.9585    0.2763   -0.7467 H       1  UNL1        0.0660
     18 H           4.6947   -0.0532    0.8744 H       1  UNL1        0.0660
     19 H           3.5206   -1.2583    0.1693 H       1  UNL1        0.0660
     20 H           1.8993   -1.1658   -1.0634 H       1  UNL1        0.0654
     21 H          -0.5185   -1.4947   -1.6958 H       1  UNL1        0.0626
@<TRIPOS>BOND
     1     1     2    2
     2     2     3    1
     3     3     4    1
     4     4     5    2
     5     4     6    1
     6     6     7   ar
     7     7     8   ar
     8     8     9    1
     9     9    10    1
    10     8    11   ar
    11    11    12   ar
    12    12    13   ar
    13    13     2    1
    14    13     6   ar
    15     1    14    1
    16     1    15    1
    17     7    16    1
    18    10    17    1
    19    10    18    1
    20    10    19    1
    21    11    20    1
    22    12    21    1
@<TRIPOS>MOLECULE
51078702
 20 21 0 0 0
SMALL
GASTEIGER

@<TRIPOS>ATOM
      1 C          -2.2990    2.1832    0.0247 C.2     1  UNL1       -0.0554
      2 C          -2.0957    0.8796   -0.0742 C.2     1  UNL1        0.1328
      3 O          -3.0006   -0.1428   -0.2288 O.3     1  UNL1       -0.4223
      4 C          -2.3965   -1.3733   -0.2922 C.2     1  UNL1        0.3451
      5 O          -2.9394   -2.4878   -0.4287 O.2     1  UNL1       -0.2445
      6 C          -0.9581   -1.1299   -0.1667 C.ar    1  UNL1        0.0700
      7 C           0.1506   -1.9498   -0.1578 C.ar    1  UNL1       -0.0468
      8 C           1.4212   -1.4444   -0.0216 C.ar    1  UNL1       -0.0580
      9 C           1.5776   -0.0875    0.1079 C.ar    1  UNL1       -0.0497
     10 C           2.9395    0.4958    0.2575 C.3     1  UNL1       -0.0397
     11 C           0.4789    0.7462    0.1009 C.ar    1  UNL1       -0.0474
     12 C          -0.7812    0.2359   -0.0349 C.ar    1  UNL1        0.0310
     13 H          -1.4721    2.8669    0.1442 H       1  UNL1        0.0571
     14 H          -3.2902    2.6110   -0.0099 H       1  UNL1        0.0571
     15 H          -0.0317   -3.0216   -0.2643 H       1  UNL1        0.0626
     16 H           2.2594   -2.1372   -0.0212 H       1  UNL1        0.0620
     17 H           3.4176    0.0087    1.1315 H       1  UNL1        0.0278
     18 H           3.5176    0.3398   -0.6831 H       1  UNL1        0.0278
     19 H           2.8694    1.5907    0.4122 H       1  UNL1        0.0278
     20 H           0.6327    1.8164    0.2052 H       1  UNL1        0.0627
@<TRIPOS>BOND
     1     1     2    2
     2     2     3    1
     3     3     4    1
     4     4     5    2
     5     4     6    1
     6     6     7   ar
     7     7     8   ar
     8     8     9   ar
     9     9    10    1
    10     9    11   ar
    11    11    12   ar
    12    12     2    1
    13    12     6   ar
    14     1    13    1
    15     1    14    1
    16     7    15    1
    17     8    16    1
    18    10    17    1
    19    10    18    1
    20    10    19    1
    21    11    20    1
@<TRIPOS>MOLECULE
51078704
 17 18 0 0 0
SMALL
GASTEIGER

@<TRIPOS>ATOM
      1 C           2.4297   -1.3153   -0.8876 C.2     1  UNL1       -0.0554
      2 C           1.7343   -0.2951   -0.4096 C.2     1  UNL1        0.1328
      3 O           2.2281    0.9604   -0.0602 O.3     1  UNL1       -0.4223
      4 C           1.2000    1.7635    0.4012 C.2     1  UNL1        0.3451
      5 O           1.2578    2.9579    0.8065 O.2     1  UNL1       -0.2445
      6 C          -0.0342    0.9969    0.3529 C.ar    1  UNL1        0.0700
      7 C          -1.3418    1.2983    0.6892 C.ar    1  UNL1       -0.0471
      8 C          -2.3411    0.3640    0.5409 C.ar    1  UNL1       -0.0609
      9 C          -1.9844   -0.8731    0.0474 C.ar    1  UNL1       -0.0610
     10 C          -0.6923   -1.2016   -0.2955 C.ar    1  UNL1       -0.0503
     11 C           0.3132   -0.2452   -0.1407 C.ar    1  UNL1        0.0308
     12 H           3.4962   -1.2584   -1.0565 H       1  UNL1        0.0571
     13 H           1.9093   -2.2336   -1.1150 H       1  UNL1        0.0571
     14 H          -1.6231    2.2864    1.0827 H       1  UNL1        0.0626
     15 H          -3.3788    0.5539    0.7906 H       1  UNL1        0.0618
     16 H          -2.7772   -1.6060   -0.0673 H       1  UNL1        0.0618
     17 H          -0.3958   -2.1530   -0.6790 H       1  UNL1        0.0625
@<TRIPOS>BOND
     1     1     2    2
     2     2     3    1
     3     3     4    1
     4     4     5    2
     5     4     6    1
     6     6     7   ar
     7     7     8   ar
     8     8     9   ar
     9     9    10   ar
    10    10    11   ar
    11    11     2    1
    12    11     6   ar
    13     1    12    1
    14     1    13    1
    15     7    14    1
    16     8    15    1
    17     9    16    1
    18    10    17    1
